Diclofenaco
 OpenBabel04032412433D

 30 31  0  0  0  0  0  0  0  0999 V2000
    1.3878   -0.1175    0.1217 C   0  0  0  0  0  0  0  0  0  0  0  0
    0.5874   -1.2118   -0.1893 C   0  0  0  0  0  0  0  0  0  0  0  0
   -0.7940   -1.0593   -0.3040 C   0  0  0  0  0  0  0  0  0  0  0  0
   -1.4082    0.1962   -0.1025 C   0  0  0  0  0  0  0  0  0  0  0  0
   -0.5782    1.3203    0.1818 C   0  0  0  0  0  0  0  0  0  0  0  0
    0.8124    1.1383    0.3050 C   0  0  0  0  0  0  0  0  0  0  0  0
   -1.1397    2.7145    0.3874 C   0  0  0  0  0  0  0  0  0  0  0  0
   -1.7073    3.3578   -0.8614 C   0  0  0  0  0  0  0  0  0  0  0  0
   -2.2070    4.4673   -0.7684 O   0  0  0  0  0  0  0  0  0  0  0  0
   -1.6658    2.7662   -2.0780 O   0  0  0  0  0  0  0  0  0  0  0  0
   -2.8310    0.3466   -0.2267 N   0  0  0  0  0  0  0  0  0  0  0  0
   -3.7948   -0.7138   -0.2250 C   0  0  0  0  0  0  0  0  0  0  0  0
   -3.7424   -1.7996    0.6941 C   0  0  0  0  0  0  0  0  0  0  0  0
   -4.7241   -2.7972    0.6542 C   0  0  0  0  0  0  0  0  0  0  0  0
   -5.7620   -2.7356   -0.2726 C   0  0  0  0  0  0  0  0  0  0  0  0
   -5.8413   -1.6656   -1.1596 C   0  0  0  0  0  0  0  0  0  0  0  0
   -4.8760   -0.6543   -1.1359 C   0  0  0  0  0  0  0  0  0  0  0  0
   -5.0352    0.6632   -2.2940 Cl  0  0  0  0  0  0  0  0  0  0  0  0
   -2.5458   -1.9273    1.9835 Cl  0  0  0  0  0  0  0  0  0  0  0  0
    2.4594   -0.2403    0.2125 H   0  0  0  0  0  0  0  0  0  0  0  0
    1.0384   -2.1837   -0.3435 H   0  0  0  0  0  0  0  0  0  0  0  0
   -1.3794   -1.9311   -0.5607 H   0  0  0  0  0  0  0  0  0  0  0  0
    1.4601    1.9751    0.5356 H   0  0  0  0  0  0  0  0  0  0  0  0
   -0.3439    3.3996    0.7533 H   0  0  0  0  0  0  0  0  0  0  0  0
   -1.9184    2.6650    1.1785 H   0  0  0  0  0  0  0  0  0  0  0  0
   -1.2603    1.9047   -2.2399 H   0  0  0  0  0  0  0  0  0  0  0  0
   -3.1907    1.2838   -0.4429 H   0  0  0  0  0  0  0  0  0  0  0  0
   -4.6917   -3.6204    1.3570 H   0  0  0  0  0  0  0  0  0  0  0  0
   -6.5161   -3.5119   -0.2927 H   0  0  0  0  0  0  0  0  0  0  0  0
   -6.6584   -1.6214   -1.8686 H   0  0  0  0  0  0  0  0  0  0  0  0
  1  2  2  0  0  0  0
  1  6  1  0  0  0  0
  1 20  1  0  0  0  0
  2  3  1  0  0  0  0
  2 21  1  0  0  0  0
  3  4  2  0  0  0  0
  3 22  1  0  0  0  0
  4  5  1  0  0  0  0
  4 11  1  0  0  0  0
  5  6  2  0  0  0  0
  5  7  1  0  0  0  0
  6 23  1  0  0  0  0
  7  8  1  0  0  0  0
  7 24  1  0  0  0  0
  7 25  1  0  0  0  0
  8  9  2  0  0  0  0
  8 10  1  0  0  0  0
 10 26  1  0  0  0  0
 11 12  1  0  0  0  0
 11 27  1  0  0  0  0
 12 13  2  0  0  0  0
 12 17  1  0  0  0  0
 13 14  1  0  0  0  0
 13 19  1  0  0  0  0
 14 15  2  0  0  0  0
 14 28  1  0  0  0  0
 15 16  1  0  0  0  0
 15 29  1  0  0  0  0
 16 17  2  0  0  0  0
 16 30  1  0  0  0  0
 17 18  1  0  0  0  0
M  END
>  <Energy>
256.655

$$$$
