Ibuprofeno
 OpenBabel04032412433D

 33 33  0  0  1  0  0  0  0  0999 V2000
    2.9251    3.6456    1.4031 C   0  0  0  0  0  0  0  0  0  0  0  0
    2.4322    2.2363    1.7665 C   0  0  0  0  0  0  0  0  0  0  0  0
    0.9016    2.1834    1.6831 C   0  0  0  0  0  0  0  0  0  0  0  0
    3.0466    1.1655    0.8359 C   0  0  0  0  0  0  0  0  0  0  0  0
    4.5545    1.1106    0.9226 C   0  0  0  0  0  0  0  0  0  0  0  0
    5.1874    0.7814    2.1321 C   0  0  0  0  0  0  0  0  0  0  0  0
    6.5817    0.7301    2.2110 C   0  0  0  0  0  0  0  0  0  0  0  0
    7.3706    1.0038    1.0811 C   0  0  0  0  0  0  0  0  0  0  0  0
    6.7345    1.3311   -0.1305 C   0  0  0  0  0  0  0  0  0  0  0  0
    5.3403    1.3826   -0.2085 C   0  0  0  0  0  0  0  0  0  0  0  0
    8.8826    0.9472    1.1775 C   0  0  3  0  0  0  0  0  0  0  0  0
    9.4351   -0.1609    0.2663 C   0  0  0  0  0  0  0  0  0  0  0  0
    9.4732    2.3081    0.8619 C   0  0  0  0  0  0  0  0  0  0  0  0
   10.2569    2.4524   -0.0643 O   0  0  0  0  0  0  0  0  0  0  0  0
    9.1410    3.3818    1.6105 O   0  0  0  0  0  0  0  0  0  0  0  0
    2.4753    4.3961    2.0877 H   0  0  0  0  0  0  0  0  0  0  0  0
    2.6458    3.9011    0.3583 H   0  0  0  0  0  0  0  0  0  0  0  0
    4.0287    3.7132    1.5048 H   0  0  0  0  0  0  0  0  0  0  0  0
    2.7210    2.0212    2.8182 H   0  0  0  0  0  0  0  0  0  0  0  0
    0.5558    2.3994    0.6492 H   0  0  0  0  0  0  0  0  0  0  0  0
    0.4533    2.9299    2.3731 H   0  0  0  0  0  0  0  0  0  0  0  0
    0.5362    1.1769    1.9794 H   0  0  0  0  0  0  0  0  0  0  0  0
    2.7283    1.3778   -0.2093 H   0  0  0  0  0  0  0  0  0  0  0  0
    2.6513    0.1629    1.1094 H   0  0  0  0  0  0  0  0  0  0  0  0
    4.6021    0.5622    3.0160 H   0  0  0  0  0  0  0  0  0  0  0  0
    7.0445    0.4748    3.1561 H   0  0  0  0  0  0  0  0  0  0  0  0
    7.3184    1.5493   -1.0156 H   0  0  0  0  0  0  0  0  0  0  0  0
    4.8755    1.6378   -1.1526 H   0  0  0  0  0  0  0  0  0  0  0  0
    9.1842    0.6904    2.2171 H   0  0  0  0  0  0  0  0  0  0  0  0
    9.1949    0.0342   -0.8004 H   0  0  0  0  0  0  0  0  0  0  0  0
    8.9997   -1.1413    0.5559 H   0  0  0  0  0  0  0  0  0  0  0  0
   10.5390   -0.2272    0.3739 H   0  0  0  0  0  0  0  0  0  0  0  0
    8.5294    3.3105    2.3567 H   0  0  0  0  0  0  0  0  0  0  0  0
  1  2  1  0  0  0  0
  1 16  1  0  0  0  0
  1 17  1  0  0  0  0
  1 18  1  0  0  0  0
  2  3  1  0  0  0  0
  2  4  1  0  0  0  0
  2 19  1  0  0  0  0
  3 20  1  0  0  0  0
  3 21  1  0  0  0  0
  3 22  1  0  0  0  0
  4  5  1  0  0  0  0
  4 23  1  0  0  0  0
  4 24  1  0  0  0  0
  5  6  2  0  0  0  0
  5 10  1  0  0  0  0
  6  7  1  0  0  0  0
  6 25  1  0  0  0  0
  7  8  2  0  0  0  0
  7 26  1  0  0  0  0
  8  9  1  0  0  0  0
  8 11  1  0  0  0  0
  9 10  2  0  0  0  0
  9 27  1  0  0  0  0
 10 28  1  0  0  0  0
 11 12  1  0  0  0  0
 11 13  1  0  0  0  0
 11 29  1  0  0  0  0
 12 30  1  0  0  0  0
 12 31  1  0  0  0  0
 12 32  1  0  0  0  0
 13 14  2  0  0  0  0
 13 15  1  0  0  0  0
 15 33  1  0  0  0  0
M  END
>  <Energy>
89.2867

$$$$
