MODEL 1
REMARK VINA RESULT:    -8.352      0.000      0.000
REMARK INTER + INTRA:         -10.371
REMARK INTER:                 -10.061
REMARK INTRA:                  -0.310
REMARK UNBOUND:                -0.310
REMARK SMILES COc1ccc2cc([C@H](C)C(=O)O)ccc2c1
REMARK SMILES IDX 10 1 9 2 8 3 7 4 14 5 6 6 15 7 16 8 5 9 17 10 4 11 3 12 2 13
REMARK SMILES IDX 1 14 11 15 12 16 13 17
REMARK H PARENT 13 18
REMARK Flexibility Score: inf
ROOT
ATOM      1  C   UNL A   1       9.731  23.030  27.064  1.00  0.00     0.025 C 
ATOM      2  C   UNL A   1      10.559  22.402  25.933  1.00  0.00     0.126 C 
ENDROOT
BRANCH   2   3
ATOM      3  C   UNL A   1      11.866  23.152  25.756  1.00  0.00    -0.033 A 
ATOM      4  C   UNL A   1      12.526  23.170  24.514  1.00  0.00     0.013 A 
ATOM      5  C   UNL A   1      12.430  23.845  26.840  1.00  0.00     0.005 A 
ATOM      6  C   UNL A   1      13.734  23.867  24.357  1.00  0.00    -0.018 A 
ATOM      7  C   UNL A   1      13.632  24.542  26.693  1.00  0.00     0.009 A 
ATOM      8  C   UNL A   1      14.291  24.560  25.457  1.00  0.00    -0.015 A 
ATOM      9  C   UNL A   1      14.393  23.887  23.121  1.00  0.00     0.012 A 
ATOM     10  C   UNL A   1      15.498  25.258  25.300  1.00  0.00     0.055 A 
ATOM     11  C   UNL A   1      15.595  24.585  22.973  1.00  0.00     0.047 A 
ATOM     12  C   UNL A   1      16.158  25.277  24.065  1.00  0.00     0.119 A 
BRANCH  12  13
ATOM     13  O   UNL A   1      17.323  25.969  23.969  1.00  0.00    -0.497 OA
ATOM     14  C   UNL A   1      18.441  25.774  24.752  1.00  0.00     0.278 C 
ENDBRANCH  12  13
ENDBRANCH   2   3
BRANCH   2  15
ATOM     15  C   UNL A   1      10.836  20.929  26.162  1.00  0.00     0.310 C 
ATOM     16  O   UNL A   1      10.776  20.129  25.240  1.00  0.00    -0.252 OA
BRANCH  15  17
ATOM     17  O   UNL A   1      11.159  20.483  27.395  1.00  0.00    -0.481 OA
ATOM     18  H   UNL A   1      10.487  20.347  28.078  1.00  0.00     0.296 HD
ENDBRANCH  15  17
ENDBRANCH   2  15
TORSDOF 4
ENDMDL
MODEL 2
REMARK VINA RESULT:    -8.178      1.282      6.509
REMARK INTER + INTRA:         -10.161
REMARK INTER:                 -10.085
REMARK INTRA:                  -0.076
REMARK UNBOUND:                -0.310
REMARK SMILES COc1ccc2cc([C@H](C)C(=O)O)ccc2c1
REMARK SMILES IDX 10 1 9 2 8 3 7 4 14 5 6 6 15 7 16 8 5 9 17 10 4 11 3 12 2 13
REMARK SMILES IDX 1 14 11 15 12 16 13 17
REMARK H PARENT 13 18
REMARK Flexibility Score: inf
ROOT
ATOM      1  C   UNL A   1      17.709  24.761  22.969  1.00  0.00     0.025 C 
ATOM      2  C   UNL A   1      16.707  25.734  23.609  1.00  0.00     0.126 C 
ENDROOT
BRANCH   2   3
ATOM      3  C   UNL A   1      15.397  25.026  23.898  1.00  0.00    -0.033 A 
ATOM      4  C   UNL A   1      14.922  24.896  25.216  1.00  0.00     0.013 A 
ATOM      5  C   UNL A   1      14.637  24.495  22.842  1.00  0.00     0.005 A 
ATOM      6  C   UNL A   1      13.709  24.241  25.476  1.00  0.00    -0.018 A 
ATOM      7  C   UNL A   1      13.427  23.842  23.092  1.00  0.00     0.009 A 
ATOM      8  C   UNL A   1      12.955  23.710  24.405  1.00  0.00    -0.015 A 
ATOM      9  C   UNL A   1      13.234  24.110  26.788  1.00  0.00     0.012 A 
ATOM     10  C   UNL A   1      11.740  23.057  24.664  1.00  0.00     0.055 A 
ATOM     11  C   UNL A   1      12.023  23.457  27.039  1.00  0.00     0.047 A 
ATOM     12  C   UNL A   1      11.266  22.924  25.975  1.00  0.00     0.119 A 
BRANCH  12  13
ATOM     13  O   UNL A   1      10.084  22.283  26.169  1.00  0.00    -0.497 OA
ATOM     14  C   UNL A   1       9.083  22.682  27.029  1.00  0.00     0.278 C 
ENDBRANCH  12  13
ENDBRANCH   2   3
BRANCH   2  15
ATOM     15  C   UNL A   1      17.242  26.370  24.877  1.00  0.00     0.310 C 
ATOM     16  O   UNL A   1      16.765  27.410  25.306  1.00  0.00    -0.252 OA
BRANCH  15  17
ATOM     17  O   UNL A   1      18.254  25.786  25.555  1.00  0.00    -0.481 OA
ATOM     18  H   UNL A   1      18.636  24.944  25.270  1.00  0.00     0.296 HD
ENDBRANCH  15  17
ENDBRANCH   2  15
TORSDOF 4
ENDMDL
MODEL 3
REMARK VINA RESULT:    -7.537      0.887      2.032
REMARK INTER + INTRA:          -9.389
REMARK INTER:                  -9.098
REMARK INTRA:                  -0.291
REMARK UNBOUND:                -0.310
REMARK SMILES COc1ccc2cc([C@H](C)C(=O)O)ccc2c1
REMARK SMILES IDX 10 1 9 2 8 3 7 4 14 5 6 6 15 7 16 8 5 9 17 10 4 11 3 12 2 13
REMARK SMILES IDX 1 14 11 15 12 16 13 17
REMARK H PARENT 13 18
REMARK Flexibility Score: inf
ROOT
ATOM      1  C   UNL A   1       9.683  23.173  26.929  1.00  0.00     0.025 C 
ATOM      2  C   UNL A   1      10.202  22.230  25.832  1.00  0.00     0.126 C 
ENDROOT
BRANCH   2   3
ATOM      3  C   UNL A   1      11.387  22.854  25.118  1.00  0.00    -0.033 A 
ATOM      4  C   UNL A   1      12.398  23.514  25.840  1.00  0.00     0.013 A 
ATOM      5  C   UNL A   1      11.486  22.773  23.719  1.00  0.00     0.005 A 
ATOM      6  C   UNL A   1      13.492  24.087  25.173  1.00  0.00    -0.018 A 
ATOM      7  C   UNL A   1      12.571  23.341  23.047  1.00  0.00     0.009 A 
ATOM      8  C   UNL A   1      13.579  24.000  23.764  1.00  0.00    -0.015 A 
ATOM      9  C   UNL A   1      14.501  24.745  25.889  1.00  0.00     0.012 A 
ATOM     10  C   UNL A   1      14.673  24.572  23.098  1.00  0.00     0.055 A 
ATOM     11  C   UNL A   1      15.588  25.313  25.217  1.00  0.00     0.047 A 
ATOM     12  C   UNL A   1      15.681  25.231  23.813  1.00  0.00     0.119 A 
BRANCH  12  13
ATOM     13  O   UNL A   1      16.718  25.765  23.117  1.00  0.00    -0.497 OA
ATOM     14  C   UNL A   1      17.949  25.175  22.925  1.00  0.00     0.278 C 
ENDBRANCH  12  13
ENDBRANCH   2   3
BRANCH   2  15
ATOM     15  C   UNL A   1      10.583  20.865  26.370  1.00  0.00     0.310 C 
ATOM     16  O   UNL A   1      11.057  20.742  27.490  1.00  0.00    -0.252 OA
BRANCH  15  17
ATOM     17  O   UNL A   1      10.394  19.761  25.616  1.00  0.00    -0.481 OA
ATOM     18  H   UNL A   1       9.617  19.196  25.727  1.00  0.00     0.296 HD
ENDBRANCH  15  17
ENDBRANCH   2  15
TORSDOF 4
ENDMDL
MODEL 4
REMARK VINA RESULT:    -7.405      1.211      6.331
REMARK INTER + INTRA:          -9.230
REMARK INTER:                  -9.177
REMARK INTRA:                  -0.053
REMARK UNBOUND:                -0.310
REMARK SMILES COc1ccc2cc([C@H](C)C(=O)O)ccc2c1
REMARK SMILES IDX 10 1 9 2 8 3 7 4 14 5 6 6 15 7 16 8 5 9 17 10 4 11 3 12 2 13
REMARK SMILES IDX 1 14 11 15 12 16 13 17
REMARK H PARENT 13 18
REMARK Flexibility Score: inf
ROOT
ATOM      1  C   UNL A   1      17.019  24.467  22.920  1.00  0.00     0.025 C 
ATOM      2  C   UNL A   1      16.263  25.573  23.672  1.00  0.00     0.126 C 
ENDROOT
BRANCH   2   3
ATOM      3  C   UNL A   1      15.113  24.981  24.464  1.00  0.00    -0.033 A 
ATOM      4  C   UNL A   1      14.222  24.067  23.871  1.00  0.00     0.013 A 
ATOM      5  C   UNL A   1      14.928  25.340  25.810  1.00  0.00     0.005 A 
ATOM      6  C   UNL A   1      13.161  23.522  24.610  1.00  0.00    -0.018 A 
ATOM      7  C   UNL A   1      13.874  24.802  26.554  1.00  0.00     0.009 A 
ATOM      8  C   UNL A   1      12.986  23.893  25.963  1.00  0.00    -0.015 A 
ATOM      9  C   UNL A   1      12.273  22.612  24.021  1.00  0.00     0.012 A 
ATOM     10  C   UNL A   1      11.926  23.347  26.703  1.00  0.00     0.055 A 
ATOM     11  C   UNL A   1      11.219  22.073  24.765  1.00  0.00     0.047 A 
ATOM     12  C   UNL A   1      11.037  22.438  26.114  1.00  0.00     0.119 A 
BRANCH  12  13
ATOM     13  O   UNL A   1      10.030  21.940  26.877  1.00  0.00    -0.497 OA
ATOM     14  C   UNL A   1       8.808  22.543  27.090  1.00  0.00     0.278 C 
ENDBRANCH  12  13
ENDBRANCH   2   3
BRANCH   2  15
ATOM     15  C   UNL A   1      17.165  26.374  24.590  1.00  0.00     0.310 C 
ATOM     16  O   UNL A   1      18.197  25.892  25.033  1.00  0.00    -0.252 OA
BRANCH  15  17
ATOM     17  O   UNL A   1      16.840  27.641  24.926  1.00  0.00    -0.481 OA
ATOM     18  H   UNL A   1      17.063  28.391  24.356  1.00  0.00     0.296 HD
ENDBRANCH  15  17
ENDBRANCH   2  15
TORSDOF 4
ENDMDL
MODEL 5
REMARK VINA RESULT:    -6.953      3.936      5.362
REMARK INTER + INTRA:          -8.686
REMARK INTER:                  -8.612
REMARK INTRA:                  -0.074
REMARK UNBOUND:                -0.310
REMARK SMILES COc1ccc2cc([C@H](C)C(=O)O)ccc2c1
REMARK SMILES IDX 10 1 9 2 8 3 7 4 14 5 6 6 15 7 16 8 5 9 17 10 4 11 3 12 2 13
REMARK SMILES IDX 1 14 11 15 12 16 13 17
REMARK H PARENT 13 18
REMARK Flexibility Score: inf
ROOT
ATOM      1  C   UNL A   1      11.646  20.885  20.040  1.00  0.00     0.025 C 
ATOM      2  C   UNL A   1      11.483  22.388  19.765  1.00  0.00     0.126 C 
ENDROOT
BRANCH   2   3
ATOM      3  C   UNL A   1      12.250  23.198  20.792  1.00  0.00    -0.033 A 
ATOM      4  C   UNL A   1      12.061  22.983  22.170  1.00  0.00     0.013 A 
ATOM      5  C   UNL A   1      13.168  24.177  20.373  1.00  0.00     0.005 A 
ATOM      6  C   UNL A   1      12.775  23.735  23.115  1.00  0.00    -0.018 A 
ATOM      7  C   UNL A   1      13.883  24.930  21.307  1.00  0.00     0.009 A 
ATOM      8  C   UNL A   1      13.694  24.717  22.680  1.00  0.00    -0.015 A 
ATOM      9  C   UNL A   1      12.588  23.522  24.487  1.00  0.00     0.012 A 
ATOM     10  C   UNL A   1      14.409  25.469  23.624  1.00  0.00     0.055 A 
ATOM     11  C   UNL A   1      13.304  24.275  25.422  1.00  0.00     0.047 A 
ATOM     12  C   UNL A   1      14.222  25.257  24.996  1.00  0.00     0.119 A 
BRANCH  12  13
ATOM     13  O   UNL A   1      14.941  26.012  25.867  1.00  0.00    -0.497 OA
ATOM     14  C   UNL A   1      15.484  27.251  25.600  1.00  0.00     0.278 C 
ENDBRANCH  12  13
ENDBRANCH   2   3
BRANCH   2  15
ATOM     15  C   UNL A   1      11.924  22.775  18.367  1.00  0.00     0.310 C 
ATOM     16  O   UNL A   1      12.745  22.104  17.760  1.00  0.00    -0.252 OA
BRANCH  15  17
ATOM     17  O   UNL A   1      11.404  23.869  17.770  1.00  0.00    -0.481 OA
ATOM     18  H   UNL A   1      11.194  23.881  16.825  1.00  0.00     0.296 HD
ENDBRANCH  15  17
ENDBRANCH   2  15
TORSDOF 4
ENDMDL
MODEL 6
REMARK VINA RESULT:    -6.854      3.454      5.944
REMARK INTER + INTRA:          -8.566
REMARK INTER:                  -8.298
REMARK INTRA:                  -0.268
REMARK UNBOUND:                -0.310
REMARK SMILES COc1ccc2cc([C@H](C)C(=O)O)ccc2c1
REMARK SMILES IDX 10 1 9 2 8 3 7 4 14 5 6 6 15 7 16 8 5 9 17 10 4 11 3 12 2 13
REMARK SMILES IDX 1 14 11 15 12 16 13 17
REMARK H PARENT 13 18
REMARK Flexibility Score: inf
ROOT
ATOM      1  C   UNL A   1      13.937  25.038  26.642  1.00  0.00     0.025 C 
ATOM      2  C   UNL A   1      14.986  25.411  25.582  1.00  0.00     0.126 C 
ENDROOT
BRANCH   2   3
ATOM      3  C   UNL A   1      14.504  25.011  24.201  1.00  0.00    -0.033 A 
ATOM      4  C   UNL A   1      13.451  24.091  24.042  1.00  0.00     0.013 A 
ATOM      5  C   UNL A   1      15.108  25.563  23.059  1.00  0.00     0.005 A 
ATOM      6  C   UNL A   1      13.009  23.726  22.761  1.00  0.00    -0.018 A 
ATOM      7  C   UNL A   1      14.674  25.206  21.779  1.00  0.00     0.009 A 
ATOM      8  C   UNL A   1      13.626  24.289  21.620  1.00  0.00    -0.015 A 
ATOM      9  C   UNL A   1      11.961  22.811  22.600  1.00  0.00     0.012 A 
ATOM     10  C   UNL A   1      13.184  23.925  20.339  1.00  0.00     0.055 A 
ATOM     11  C   UNL A   1      11.526  22.453  21.320  1.00  0.00     0.047 A 
ATOM     12  C   UNL A   1      12.136  23.009  20.178  1.00  0.00     0.119 A 
BRANCH  12  13
ATOM     13  O   UNL A   1      11.748  22.694  18.915  1.00  0.00    -0.497 OA
ATOM     14  C   UNL A   1      12.314  23.177  17.754  1.00  0.00     0.278 C 
ENDBRANCH  12  13
ENDBRANCH   2   3
BRANCH   2  15
ATOM     15  C   UNL A   1      15.334  26.887  25.602  1.00  0.00     0.310 C 
ATOM     16  O   UNL A   1      14.458  27.738  25.598  1.00  0.00    -0.252 OA
BRANCH  15  17
ATOM     17  O   UNL A   1      16.626  27.278  25.630  1.00  0.00    -0.481 OA
ATOM     18  H   UNL A   1      17.351  26.638  25.626  1.00  0.00     0.296 HD
ENDBRANCH  15  17
ENDBRANCH   2  15
TORSDOF 4
ENDMDL
MODEL 7
REMARK VINA RESULT:    -6.764      3.034      6.229
REMARK INTER + INTRA:          -8.457
REMARK INTER:                  -8.225
REMARK INTRA:                  -0.232
REMARK UNBOUND:                -0.310
REMARK SMILES COc1ccc2cc([C@H](C)C(=O)O)ccc2c1
REMARK SMILES IDX 10 1 9 2 8 3 7 4 14 5 6 6 15 7 16 8 5 9 17 10 4 11 3 12 2 13
REMARK SMILES IDX 1 14 11 15 12 16 13 17
REMARK H PARENT 13 18
REMARK Flexibility Score: inf
ROOT
ATOM      1  C   UNL A   1      17.746  26.185  25.222  1.00  0.00     0.025 C 
ATOM      2  C   UNL A   1      16.483  26.907  24.728  1.00  0.00     0.126 C 
ENDROOT
BRANCH   2   3
ATOM      3  C   UNL A   1      15.458  25.901  24.238  1.00  0.00    -0.033 A 
ATOM      4  C   UNL A   1      15.114  25.826  22.875  1.00  0.00     0.013 A 
ATOM      5  C   UNL A   1      14.842  25.025  25.148  1.00  0.00     0.005 A 
ATOM      6  C   UNL A   1      14.167  24.892  22.430  1.00  0.00    -0.018 A 
ATOM      7  C   UNL A   1      13.898  24.093  24.712  1.00  0.00     0.009 A 
ATOM      8  C   UNL A   1      13.553  24.018  23.356  1.00  0.00    -0.015 A 
ATOM      9  C   UNL A   1      13.823  24.816  21.073  1.00  0.00     0.012 A 
ATOM     10  C   UNL A   1      12.607  23.083  22.910  1.00  0.00     0.055 A 
ATOM     11  C   UNL A   1      12.878  23.882  20.636  1.00  0.00     0.047 A 
ATOM     12  C   UNL A   1      12.262  23.007  21.554  1.00  0.00     0.119 A 
BRANCH  12  13
ATOM     13  O   UNL A   1      11.340  22.083  21.177  1.00  0.00    -0.497 OA
ATOM     14  C   UNL A   1      11.414  21.282  20.058  1.00  0.00     0.278 C 
ENDBRANCH  12  13
ENDBRANCH   2   3
BRANCH   2  15
ATOM     15  C   UNL A   1      15.867  27.797  25.790  1.00  0.00     0.310 C 
ATOM     16  O   UNL A   1      16.488  28.087  26.802  1.00  0.00    -0.252 OA
BRANCH  15  17
ATOM     17  O   UNL A   1      14.620  28.287  25.626  1.00  0.00    -0.481 OA
ATOM     18  H   UNL A   1      14.158  28.750  26.339  1.00  0.00     0.296 HD
ENDBRANCH  15  17
ENDBRANCH   2  15
TORSDOF 4
ENDMDL
MODEL 8
REMARK VINA RESULT:    -6.685      3.219      4.265
REMARK INTER + INTRA:          -8.362
REMARK INTER:                  -8.859
REMARK INTRA:                   0.497
REMARK UNBOUND:                -0.310
REMARK SMILES COc1ccc2cc([C@H](C)C(=O)O)ccc2c1
REMARK SMILES IDX 10 1 9 2 8 3 7 4 14 5 6 6 15 7 16 8 5 9 17 10 4 11 3 12 2 13
REMARK SMILES IDX 1 14 11 15 12 16 13 17
REMARK H PARENT 13 18
REMARK Flexibility Score: inf
ROOT
ATOM      1  C   UNL A   1      13.006  24.211  19.901  1.00  0.00     0.025 C 
ATOM      2  C   UNL A   1      13.180  23.446  21.222  1.00  0.00     0.126 C 
ENDROOT
BRANCH   2   3
ATOM      3  C   UNL A   1      13.595  24.395  22.330  1.00  0.00    -0.033 A 
ATOM      4  C   UNL A   1      14.954  24.651  22.589  1.00  0.00     0.013 A 
ATOM      5  C   UNL A   1      12.617  25.034  23.111  1.00  0.00     0.005 A 
ATOM      6  C   UNL A   1      15.331  25.532  23.615  1.00  0.00    -0.018 A 
ATOM      7  C   UNL A   1      12.984  25.912  24.134  1.00  0.00     0.009 A 
ATOM      8  C   UNL A   1      14.337  26.167  24.394  1.00  0.00    -0.015 A 
ATOM      9  C   UNL A   1      16.684  25.789  23.875  1.00  0.00     0.012 A 
ATOM     10  C   UNL A   1      14.714  27.048  25.419  1.00  0.00     0.055 A 
ATOM     11  C   UNL A   1      17.051  26.668  24.898  1.00  0.00     0.047 A 
ATOM     12  C   UNL A   1      16.066  27.305  25.680  1.00  0.00     0.119 A 
BRANCH  12  13
ATOM     13  O   UNL A   1      16.374  28.167  26.683  1.00  0.00    -0.497 OA
ATOM     14  C   UNL A   1      15.484  28.687  27.600  1.00  0.00     0.278 C 
ENDBRANCH  12  13
ENDBRANCH   2   3
BRANCH   2  15
ATOM     15  C   UNL A   1      11.928  22.692  21.628  1.00  0.00     0.310 C 
ATOM     16  O   UNL A   1      11.582  22.636  22.798  1.00  0.00    -0.252 OA
BRANCH  15  17
ATOM     17  O   UNL A   1      11.173  22.077  20.693  1.00  0.00    -0.481 OA
ATOM     18  H   UNL A   1      10.572  21.353  20.921  1.00  0.00     0.296 HD
ENDBRANCH  15  17
ENDBRANCH   2  15
TORSDOF 4
ENDMDL
MODEL 9
REMARK VINA RESULT:    -6.375     10.136     12.483
REMARK INTER + INTRA:          -7.989
REMARK INTER:                  -7.668
REMARK INTRA:                  -0.321
REMARK UNBOUND:                -0.310
REMARK SMILES COc1ccc2cc([C@H](C)C(=O)O)ccc2c1
REMARK SMILES IDX 10 1 9 2 8 3 7 4 14 5 6 6 15 7 16 8 5 9 17 10 4 11 3 12 2 13
REMARK SMILES IDX 1 14 11 15 12 16 13 17
REMARK H PARENT 13 18
REMARK Flexibility Score: inf
ROOT
ATOM      1  C   UNL A   1      11.458  14.011  27.507  1.00  0.00     0.025 C 
ATOM      2  C   UNL A   1      10.792  13.197  26.387  1.00  0.00     0.126 C 
ENDROOT
BRANCH   2   3
ATOM      3  C   UNL A   1       9.291  13.419  26.395  1.00  0.00    -0.033 A 
ATOM      4  C   UNL A   1       8.754  14.718  26.444  1.00  0.00     0.013 A 
ATOM      5  C   UNL A   1       8.418  12.319  26.349  1.00  0.00     0.005 A 
ATOM      6  C   UNL A   1       7.365  14.916  26.450  1.00  0.00    -0.018 A 
ATOM      7  C   UNL A   1       7.034  12.506  26.354  1.00  0.00     0.009 A 
ATOM      8  C   UNL A   1       6.497  13.800  26.405  1.00  0.00    -0.015 A 
ATOM      9  C   UNL A   1       6.827  16.209  26.499  1.00  0.00     0.012 A 
ATOM     10  C   UNL A   1       5.108  13.998  26.410  1.00  0.00     0.055 A 
ATOM     11  C   UNL A   1       5.441  16.397  26.504  1.00  0.00     0.047 A 
ATOM     12  C   UNL A   1       4.570  15.290  26.459  1.00  0.00     0.119 A 
BRANCH  12  13
ATOM     13  O   UNL A   1       3.218  15.423  26.461  1.00  0.00    -0.497 OA
ATOM     14  C   UNL A   1       2.316  14.470  26.883  1.00  0.00     0.278 C 
ENDBRANCH  12  13
ENDBRANCH   2   3
BRANCH   2  15
ATOM     15  C   UNL A   1      11.356  13.523  25.017  1.00  0.00     0.310 C 
ATOM     16  O   UNL A   1      11.037  12.868  24.036  1.00  0.00    -0.252 OA
BRANCH  15  17
ATOM     17  O   UNL A   1      12.217  14.552  24.865  1.00  0.00    -0.481 OA
ATOM     18  H   UNL A   1      12.292  15.031  24.028  1.00  0.00     0.296 HD
ENDBRANCH  15  17
ENDBRANCH   2  15
TORSDOF 4
ENDMDL
