FLB.pdb
  PyMOL2.4          3D                             0

 30 31  0  0  0  0  0  0  0  0999 V2000
    9.1650   22.6470   27.1210 C   0  0  0  0  0  0  0  0  0  0  0  0
   10.0350   22.0060   26.0270 C   0  0  0  0  0  0  0  0  0  0  0  0
   11.2920   22.8250   25.8050 C   0  0  0  0  0  0  0  0  0  0  0  0
   11.9380   23.4320   26.8890 C   0  0  0  0  0  0  0  0  0  0  0  0
   11.8260   22.9960   24.5230 C   0  0  0  0  0  0  0  0  0  0  0  0
   13.0990   24.1910   26.7050 C   0  0  0  0  0  0  0  0  0  0  0  0
   12.9810   23.7540   24.3260 C   0  0  0  0  0  0  0  0  0  0  0  0
   13.6560   24.3720   25.4080 C   0  0  0  0  0  0  0  0  0  0  0  0
   14.9120   25.1830   25.1570 C   0  0  0  0  0  0  0  0  0  0  0  0
   16.0820   24.6080   24.5990 C   0  0  0  0  0  0  0  0  0  0  0  0
   14.9600   26.5660   25.4710 C   0  0  0  0  0  0  0  0  0  0  0  0
   17.2290   25.3750   24.3730 C   0  0  0  0  0  0  0  0  0  0  0  0
   16.1130   27.3220   25.2440 C   0  0  0  0  0  0  0  0  0  0  0  0
   17.2460   26.7280   24.6960 C   0  0  0  0  0  0  0  0  0  0  0  0
   10.4030   20.5690   26.3460 C   0  0  0  0  0  0  0  0  0  0  0  0
   10.0550   19.6560   25.6130 O   0  0  0  0  0  0  0  0  0  0  0  0
   11.1300   20.2830   27.4480 O   0  5  0  0  0  0  0  0  0  0  0  0
   13.6260   24.7610   27.8130 F   0  0  0  0  0  0  0  0  0  0  0  0
    8.1890   22.1630   27.1380 H   0  0  0  0  0  0  0  0  0  0  0  0
    9.6490   22.5230   28.0900 H   0  0  0  0  0  0  0  0  0  0  0  0
    9.0400   23.7090   26.9100 H   0  0  0  0  0  0  0  0  0  0  0  0
    9.4400   21.9940   25.1140 H   0  0  0  0  0  0  0  0  0  0  0  0
   11.5300   23.3110   27.8920 H   0  0  0  0  0  0  0  0  0  0  0  0
   11.3340   22.5320   23.6680 H   0  0  0  0  0  0  0  0  0  0  0  0
   13.3730   23.8740   23.3160 H   0  0  0  0  0  0  0  0  0  0  0  0
   16.0870   23.5490   24.3420 H   0  0  0  0  0  0  0  0  0  0  0  0
   14.0800   27.0480   25.8980 H   0  0  0  0  0  0  0  0  0  0  0  0
   18.1150   24.9100   23.9410 H   0  0  0  0  0  0  0  0  0  0  0  0
   16.1250   28.3820   25.4970 H   0  0  0  0  0  0  0  0  0  0  0  0
   18.1440   27.3210   24.5200 H   0  0  0  0  0  0  0  0  0  0  0  0
  1  2  1  0  0  0  0
  1 19  1  0  0  0  0
  1 20  1  0  0  0  0
  1 21  1  0  0  0  0
  2  3  1  0  0  0  0
  2 15  1  0  0  0  0
  2 22  1  0  0  0  0
  3  4  1  0  0  0  0
  3  5  1  0  0  0  0
  4  6  1  0  0  0  0
  4 23  1  0  0  0  0
  5  7  1  0  0  0  0
  5 24  1  0  0  0  0
  6  8  1  0  0  0  0
  6 18  1  0  0  0  0
  7  8  1  0  0  0  0
  7 25  1  0  0  0  0
  8  9  1  0  0  0  0
  9 10  1  0  0  0  0
  9 11  1  0  0  0  0
 10 12  1  0  0  0  0
 10 26  1  0  0  0  0
 11 13  1  0  0  0  0
 11 27  1  0  0  0  0
 12 14  1  0  0  0  0
 12 28  1  0  0  0  0
 13 14  1  0  0  0  0
 13 29  1  0  0  0  0
 14 30  1  0  0  0  0
 15 16  1  0  0  0  0
 15 17  1  0  0  0  0
M  END
>  <pdb_header>


$$$$
