@<TRIPOS>MOLECULE
LIG
   30    31     1     0     0
SMALL
bcc


@<TRIPOS>ATOM
      1 C            9.1650    22.6470    27.1210 c3         1 LIG      -0.064100
      2 C1          10.0350    22.0060    26.0270 c3         1 LIG      -0.177400
      3 C2          11.2920    22.8250    25.8050 ca         1 LIG       0.027700
      4 C3          11.9380    23.4320    26.8890 ca         1 LIG      -0.190000
      5 C4          11.8260    22.9960    24.5230 ca         1 LIG      -0.142000
      6 C5          13.0990    24.1910    26.7050 ca         1 LIG       0.123900
      7 C6          12.9810    23.7540    24.3260 ca         1 LIG      -0.106000
      8 C7          13.6560    24.3720    25.4080 cp         1 LIG      -0.124000
      9 C8          14.9120    25.1830    25.1570 cp         1 LIG       0.002000
     10 C9          16.0820    24.6080    24.5990 ca         1 LIG      -0.122500
     11 C10         14.9600    26.5660    25.4710 ca         1 LIG      -0.122500
     12 C11         17.2290    25.3750    24.3730 ca         1 LIG      -0.137000
     13 C12         16.1130    27.3220    25.2440 ca         1 LIG      -0.137000
     14 C13         17.2460    26.7280    24.6960 ca         1 LIG      -0.148000
     15 C14         10.4030    20.5690    26.3460 c          1 LIG       0.925600
     16 O           10.0550    19.6560    25.6130 o          1 LIG      -0.828300
     17 O1          11.1300    20.2830    27.4480 o          1 LIG      -0.828300
     18 F           13.6260    24.7610    27.8130 f          1 LIG      -0.163900
     19 H01          8.1890    22.1630    27.1380 hc         1 LIG       0.023033
     20 H02          9.6490    22.5230    28.0900 hc         1 LIG       0.023033
     21 H03          9.0400    23.7090    26.9100 hc         1 LIG       0.023033
     22 H04          9.4400    21.9940    25.1140 hc         1 LIG       0.053700
     23 H05         11.5300    23.3110    27.8920 ha         1 LIG       0.143000
     24 H06         11.3340    22.5320    23.6680 ha         1 LIG       0.190000
     25 H07         13.3730    23.8740    23.3160 ha         1 LIG       0.123000
     26 H08         16.0870    23.5490    24.3420 ha         1 LIG       0.139000
     27 H09         14.0800    27.0480    25.8980 ha         1 LIG       0.139000
     28 H10         18.1150    24.9100    23.9410 ha         1 LIG       0.119500
     29 H11         16.1250    28.3820    25.4970 ha         1 LIG       0.119500
     30 H12         18.1440    27.3210    24.5200 ha         1 LIG       0.117000
@<TRIPOS>BOND
     1     1     2 1   
     2     1    19 1   
     3     1    20 1   
     4     1    21 1   
     5     2     3 1   
     6     2    15 1   
     7     2    22 1   
     8     3     4 ar  
     9     3     5 ar  
    10     4     6 ar  
    11     4    23 1   
    12     5     7 ar  
    13     5    24 1   
    14     6     8 ar  
    15     6    18 1   
    16     7     8 ar  
    17     7    25 1   
    18     8     9 1   
    19     9    10 ar  
    20     9    11 ar  
    21    10    12 ar  
    22    10    26 1   
    23    11    13 ar  
    24    11    27 1   
    25    12    14 ar  
    26    12    28 1   
    27    13    14 ar  
    28    13    29 1   
    29    14    30 1   
    30    15    16 1   
    31    15    17 1   
@<TRIPOS>SUBSTRUCTURE
     1 LIG         1 TEMP              0 ****  ****    0 ROOT
