REMARK SMILES CC(=O)Oc1ccccc1C(=O)O
REMARK SMILES IDX 5 1 6 2 7 3 8 4 9 5 10 6 4 7 2 8 1 9 3 10 11 11 12 12 13 13
REMARK H PARENT 13 14
REMARK Flexibility Score: inf
ROOT
ATOM      1  C   UNL A   1       4.681  -0.870   0.892  1.00  0.00     0.145 A 
ATOM      2  C   UNL A   1       5.415   0.301   1.197  1.00  0.00     0.048 A 
ATOM      3  C   UNL A   1       6.805   0.279   1.268  1.00  0.00     0.004 A 
ATOM      4  C   UNL A   1       7.495  -0.902   1.036  1.00  0.00     0.001 A 
ATOM      5  C   UNL A   1       6.800  -2.067   0.725  1.00  0.00     0.019 A 
ATOM      6  C   UNL A   1       5.388  -2.085   0.641  1.00  0.00     0.102 A 
ENDROOT
BRANCH   1   7
ATOM      7  O   UNL A   1       3.323  -0.854   0.814  1.00  0.00    -0.426 OA
BRANCH   7   8
ATOM      8  C   UNL A   1       2.421   0.055   1.277  1.00  0.00     0.308 C 
ATOM      9  C   UNL A   1       0.988  -0.090   0.876  1.00  0.00     0.139 C 
ATOM     10  O   UNL A   1       2.741   0.949   2.045  1.00  0.00    -0.252 OA
ENDBRANCH   7   8
ENDBRANCH   1   7
BRANCH   6  11
ATOM     11  C   UNL A   1       4.736  -3.403   0.294  1.00  0.00     0.339 C 
ATOM     12  O   UNL A   1       5.447  -4.378   0.108  1.00  0.00    -0.246 OA
BRANCH  11  13
ATOM     13  O   UNL A   1       3.401  -3.591   0.169  1.00  0.00    -0.478 OA
ATOM     14  H   UNL A   1       2.711  -2.931   0.277  1.00  0.00     0.297 HD
ENDBRANCH  11  13
ENDBRANCH   6  11
TORSDOF 4
