MODEL 1
REMARK VINA RESULT:    -6.314      0.000      0.000
REMARK INTER + INTRA:          -8.258
REMARK INTER:                  -7.606
REMARK INTRA:                  -0.652
REMARK UNBOUND:                -0.652
REMARK SMILES CC(=O)Oc1ccccc1C(=O)O
REMARK SMILES IDX 5 1 6 2 7 3 8 4 9 5 10 6 4 7 2 8 1 9 3 10 11 11 12 12 13 13
REMARK H PARENT 13 14
REMARK Flexibility Score: inf
ROOT
ATOM      1  C   UNL A   1      14.717  25.315  23.439  1.00  0.00     0.145 A 
ATOM      2  C   UNL A   1      14.315  24.955  22.131  1.00  0.00     0.048 A 
ATOM      3  C   UNL A   1      13.122  24.273  21.908  1.00  0.00     0.004 A 
ATOM      4  C   UNL A   1      12.304  23.935  22.977  1.00  0.00     0.001 A 
ATOM      5  C   UNL A   1      12.669  24.284  24.273  1.00  0.00     0.019 A 
ATOM      6  C   UNL A   1      13.872  24.980  24.540  1.00  0.00     0.102 A 
ENDROOT
BRANCH   1   7
ATOM      7  O   UNL A   1      15.877  25.988  23.663  1.00  0.00    -0.426 OA
BRANCH   7   8
ATOM      8  C   UNL A   1      17.110  25.532  24.018  1.00  0.00     0.308 C 
ATOM      9  C   UNL A   1      17.907  24.765  23.011  1.00  0.00     0.139 C 
ATOM     10  O   UNL A   1      17.599  25.773  25.111  1.00  0.00    -0.252 OA
ENDBRANCH   7   8
ENDBRANCH   1   7
BRANCH   6  11
ATOM     11  C   UNL A   1      14.169  25.310  25.984  1.00  0.00     0.339 C 
ATOM     12  O   UNL A   1      13.727  24.579  26.857  1.00  0.00    -0.246 OA
BRANCH  11  13
ATOM     13  O   UNL A   1      14.899  26.374  26.395  1.00  0.00    -0.478 OA
ATOM     14  H   UNL A   1      14.677  27.303  26.292  1.00  0.00     0.297 HD
ENDBRANCH  11  13
ENDBRANCH   6  11
TORSDOF 4
ENDMDL
MODEL 2
REMARK VINA RESULT:    -6.096      1.550      3.804
REMARK INTER + INTRA:          -7.995
REMARK INTER:                  -7.306
REMARK INTRA:                  -0.690
REMARK UNBOUND:                -0.652
REMARK SMILES CC(=O)Oc1ccccc1C(=O)O
REMARK SMILES IDX 5 1 6 2 7 3 8 4 9 5 10 6 4 7 2 8 1 9 3 10 11 11 12 12 13 13
REMARK H PARENT 13 14
REMARK Flexibility Score: inf
ROOT
ATOM      1  C   UNL A   1      15.557  24.443  23.461  1.00  0.00     0.145 A 
ATOM      2  C   UNL A   1      16.640  24.181  22.588  1.00  0.00     0.048 A 
ATOM      3  C   UNL A   1      17.910  24.686  22.848  1.00  0.00     0.004 A 
ATOM      4  C   UNL A   1      18.134  25.458  23.978  1.00  0.00     0.001 A 
ATOM      5  C   UNL A   1      17.090  25.725  24.860  1.00  0.00     0.019 A 
ATOM      6  C   UNL A   1      15.786  25.227  24.632  1.00  0.00     0.102 A 
ENDROOT
BRANCH   1   7
ATOM      7  O   UNL A   1      14.314  23.946  23.216  1.00  0.00    -0.426 OA
BRANCH   7   8
ATOM      8  C   UNL A   1      13.281  24.464  22.496  1.00  0.00     0.308 C 
ATOM      9  C   UNL A   1      13.290  24.299  21.010  1.00  0.00     0.139 C 
ATOM     10  O   UNL A   1      12.330  25.010  23.033  1.00  0.00    -0.252 OA
ENDBRANCH   7   8
ENDBRANCH   1   7
BRANCH   6  11
ATOM     11  C   UNL A   1      14.728  25.575  25.654  1.00  0.00     0.339 C 
ATOM     12  O   UNL A   1      14.879  26.576  26.337  1.00  0.00    -0.246 OA
BRANCH  11  13
ATOM     13  O   UNL A   1      13.607  24.849  25.877  1.00  0.00    -0.478 OA
ATOM     14  H   UNL A   1      13.510  23.896  25.802  1.00  0.00     0.297 HD
ENDBRANCH  11  13
ENDBRANCH   6  11
TORSDOF 4
ENDMDL
MODEL 3
REMARK VINA RESULT:    -6.062      1.963      4.269
REMARK INTER + INTRA:          -7.954
REMARK INTER:                  -7.483
REMARK INTRA:                  -0.471
REMARK UNBOUND:                -0.652
REMARK SMILES CC(=O)Oc1ccccc1C(=O)O
REMARK SMILES IDX 5 1 6 2 7 3 8 4 9 5 10 6 4 7 2 8 1 9 3 10 11 11 12 12 13 13
REMARK H PARENT 13 14
REMARK Flexibility Score: inf
ROOT
ATOM      1  C   UNL A   1      12.940  23.742  24.070  1.00  0.00     0.145 A 
ATOM      2  C   UNL A   1      12.460  23.513  22.759  1.00  0.00     0.048 A 
ATOM      3  C   UNL A   1      13.048  24.133  21.660  1.00  0.00     0.004 A 
ATOM      4  C   UNL A   1      14.125  24.990  21.839  1.00  0.00     0.001 A 
ATOM      5  C   UNL A   1      14.624  25.227  23.116  1.00  0.00     0.019 A 
ATOM      6  C   UNL A   1      14.055  24.615  24.257  1.00  0.00     0.102 A 
ENDROOT
BRANCH   1   7
ATOM      7  O   UNL A   1      12.374  23.134  25.148  1.00  0.00    -0.426 OA
BRANCH   7   8
ATOM      8  C   UNL A   1      11.227  22.408  25.252  1.00  0.00     0.308 C 
ATOM      9  C   UNL A   1       9.964  23.114  25.629  1.00  0.00     0.139 C 
ATOM     10  O   UNL A   1      11.194  21.213  25.000  1.00  0.00    -0.252 OA
ENDBRANCH   7   8
ENDBRANCH   1   7
BRANCH   6  11
ATOM     11  C   UNL A   1      14.677  24.940  25.595  1.00  0.00     0.339 C 
ATOM     12  O   UNL A   1      15.873  25.180  25.643  1.00  0.00    -0.246 OA
BRANCH  11  13
ATOM     13  O   UNL A   1      14.000  24.986  26.767  1.00  0.00    -0.478 OA
ATOM     14  H   UNL A   1      14.357  25.200  27.633  1.00  0.00     0.297 HD
ENDBRANCH  11  13
ENDBRANCH   6  11
TORSDOF 4
ENDMDL
MODEL 4
REMARK VINA RESULT:    -5.953      1.770      3.111
REMARK INTER + INTRA:          -7.823
REMARK INTER:                  -7.282
REMARK INTRA:                  -0.541
REMARK UNBOUND:                -0.652
REMARK SMILES CC(=O)Oc1ccccc1C(=O)O
REMARK SMILES IDX 5 1 6 2 7 3 8 4 9 5 10 6 4 7 2 8 1 9 3 10 11 11 12 12 13 13
REMARK H PARENT 13 14
REMARK Flexibility Score: inf
ROOT
ATOM      1  C   UNL A   1      14.226  25.262  25.002  1.00  0.00     0.145 A 
ATOM      2  C   UNL A   1      14.121  25.144  26.409  1.00  0.00     0.048 A 
ATOM      3  C   UNL A   1      13.213  24.263  26.989  1.00  0.00     0.004 A 
ATOM      4  C   UNL A   1      12.393  23.481  26.189  1.00  0.00     0.001 A 
ATOM      5  C   UNL A   1      12.481  23.570  24.803  1.00  0.00     0.019 A 
ATOM      6  C   UNL A   1      13.393  24.450  24.175  1.00  0.00     0.102 A 
ENDROOT
BRANCH   1   7
ATOM      7  O   UNL A   1      15.117  26.115  24.428  1.00  0.00    -0.426 OA
BRANCH   7   8
ATOM      8  C   UNL A   1      16.425  26.357  24.720  1.00  0.00     0.308 C 
ATOM      9  C   UNL A   1      17.469  25.478  24.110  1.00  0.00     0.139 C 
ATOM     10  O   UNL A   1      16.767  27.297  25.421  1.00  0.00    -0.252 OA
ENDBRANCH   7   8
ENDBRANCH   1   7
BRANCH   6  11
ATOM     11  C   UNL A   1      13.407  24.464  22.664  1.00  0.00     0.339 C 
ATOM     12  O   UNL A   1      12.632  23.736  22.064  1.00  0.00    -0.246 OA
BRANCH  11  13
ATOM     13  O   UNL A   1      14.227  25.233  21.910  1.00  0.00    -0.478 OA
ATOM     14  H   UNL A   1      15.053  25.639  22.184  1.00  0.00     0.297 HD
ENDBRANCH  11  13
ENDBRANCH   6  11
TORSDOF 4
ENDMDL
MODEL 5
REMARK VINA RESULT:    -5.856      1.828      3.336
REMARK INTER + INTRA:          -7.707
REMARK INTER:                  -7.018
REMARK INTRA:                  -0.689
REMARK UNBOUND:                -0.652
REMARK SMILES CC(=O)Oc1ccccc1C(=O)O
REMARK SMILES IDX 5 1 6 2 7 3 8 4 9 5 10 6 4 7 2 8 1 9 3 10 11 11 12 12 13 13
REMARK H PARENT 13 14
REMARK Flexibility Score: inf
ROOT
ATOM      1  C   UNL A   1      13.202  24.622  24.469  1.00  0.00     0.145 A 
ATOM      2  C   UNL A   1      12.184  23.699  24.807  1.00  0.00     0.048 A 
ATOM      3  C   UNL A   1      11.980  23.307  26.127  1.00  0.00     0.004 A 
ATOM      4  C   UNL A   1      12.779  23.822  27.137  1.00  0.00     0.001 A 
ATOM      5  C   UNL A   1      13.782  24.739  26.836  1.00  0.00     0.019 A 
ATOM      6  C   UNL A   1      14.019  25.164  25.507  1.00  0.00     0.102 A 
ENDROOT
BRANCH   1   7
ATOM      7  O   UNL A   1      13.403  25.015  23.182  1.00  0.00    -0.426 OA
BRANCH   7   8
ATOM      8  C   UNL A   1      14.058  24.398  22.160  1.00  0.00     0.308 C 
ATOM      9  C   UNL A   1      13.374  24.286  20.835  1.00  0.00     0.139 C 
ATOM     10  O   UNL A   1      15.199  23.982  22.283  1.00  0.00    -0.252 OA
ENDBRANCH   7   8
ENDBRANCH   1   7
BRANCH   6  11
ATOM     11  C   UNL A   1      15.131  26.164  25.293  1.00  0.00     0.339 C 
ATOM     12  O   UNL A   1      15.269  27.070  26.100  1.00  0.00    -0.246 OA
BRANCH  11  13
ATOM     13  O   UNL A   1      16.002  26.135  24.257  1.00  0.00    -0.478 OA
ATOM     14  H   UNL A   1      16.951  26.285  24.294  1.00  0.00     0.297 HD
ENDBRANCH  11  13
ENDBRANCH   6  11
TORSDOF 4
ENDMDL
MODEL 6
REMARK VINA RESULT:    -5.848      2.707      4.038
REMARK INTER + INTRA:          -7.696
REMARK INTER:                  -7.079
REMARK INTRA:                  -0.617
REMARK UNBOUND:                -0.652
REMARK SMILES CC(=O)Oc1ccccc1C(=O)O
REMARK SMILES IDX 5 1 6 2 7 3 8 4 9 5 10 6 4 7 2 8 1 9 3 10 11 11 12 12 13 13
REMARK H PARENT 13 14
REMARK Flexibility Score: inf
ROOT
ATOM      1  C   UNL A   1      12.876  23.622  25.384  1.00  0.00     0.145 A 
ATOM      2  C   UNL A   1      12.549  23.554  26.759  1.00  0.00     0.048 A 
ATOM      3  C   UNL A   1      11.279  23.168  27.177  1.00  0.00     0.004 A 
ATOM      4  C   UNL A   1      10.308  22.839  26.242  1.00  0.00     0.001 A 
ATOM      5  C   UNL A   1      10.604  22.888  24.883  1.00  0.00     0.019 A 
ATOM      6  C   UNL A   1      11.883  23.274  24.418  1.00  0.00     0.102 A 
ENDROOT
BRANCH   1   7
ATOM      7  O   UNL A   1      14.117  23.992  24.968  1.00  0.00    -0.426 OA
BRANCH   7   8
ATOM      8  C   UNL A   1      14.803  25.154  25.154  1.00  0.00     0.308 C 
ATOM      9  C   UNL A   1      14.128  26.445  24.816  1.00  0.00     0.139 C 
ATOM     10  O   UNL A   1      15.926  25.171  25.633  1.00  0.00    -0.252 OA
ENDBRANCH   7   8
ENDBRANCH   1   7
BRANCH   6  11
ATOM     11  C   UNL A   1      12.096  23.290  22.922  1.00  0.00     0.339 C 
ATOM     12  O   UNL A   1      11.526  22.453  22.240  1.00  0.00    -0.246 OA
BRANCH  11  13
ATOM     13  O   UNL A   1      12.885  24.174  22.268  1.00  0.00    -0.478 OA
ATOM     14  H   UNL A   1      13.792  24.038  21.981  1.00  0.00     0.297 HD
ENDBRANCH  11  13
ENDBRANCH   6  11
TORSDOF 4
ENDMDL
MODEL 7
REMARK VINA RESULT:    -5.786      1.387      3.628
REMARK INTER + INTRA:          -7.621
REMARK INTER:                  -6.910
REMARK INTRA:                  -0.711
REMARK UNBOUND:                -0.652
REMARK SMILES CC(=O)Oc1ccccc1C(=O)O
REMARK SMILES IDX 5 1 6 2 7 3 8 4 9 5 10 6 4 7 2 8 1 9 3 10 11 11 12 12 13 13
REMARK H PARENT 13 14
REMARK Flexibility Score: inf
ROOT
ATOM      1  C   UNL A   1      13.818  23.950  24.165  1.00  0.00     0.145 A 
ATOM      2  C   UNL A   1      12.671  23.710  23.373  1.00  0.00     0.048 A 
ATOM      3  C   UNL A   1      12.634  24.081  22.031  1.00  0.00     0.004 A 
ATOM      4  C   UNL A   1      13.734  24.695  21.449  1.00  0.00     0.001 A 
ATOM      5  C   UNL A   1      14.879  24.935  22.202  1.00  0.00     0.019 A 
ATOM      6  C   UNL A   1      14.957  24.571  23.567  1.00  0.00     0.102 A 
ENDROOT
BRANCH   1   7
ATOM      7  O   UNL A   1      13.863  23.584  25.475  1.00  0.00    -0.426 OA
BRANCH   7   8
ATOM      8  C   UNL A   1      13.215  24.093  26.559  1.00  0.00     0.308 C 
ATOM      9  C   UNL A   1      11.993  23.391  27.057  1.00  0.00     0.139 C 
ATOM     10  O   UNL A   1      13.631  25.071  27.160  1.00  0.00    -0.252 OA
ENDBRANCH   7   8
ENDBRANCH   1   7
BRANCH   6  11
ATOM     11  C   UNL A   1      16.248  24.876  24.289  1.00  0.00     0.339 C 
ATOM     12  O   UNL A   1      17.295  24.829  23.662  1.00  0.00    -0.246 OA
BRANCH  11  13
ATOM     13  O   UNL A   1      16.338  25.202  25.600  1.00  0.00    -0.478 OA
ATOM     14  H   UNL A   1      15.726  25.745  26.104  1.00  0.00     0.297 HD
ENDBRANCH  11  13
ENDBRANCH   6  11
TORSDOF 4
ENDMDL
MODEL 8
REMARK VINA RESULT:    -5.784      2.623      5.044
REMARK INTER + INTRA:          -7.620
REMARK INTER:                  -6.901
REMARK INTRA:                  -0.719
REMARK UNBOUND:                -0.652
REMARK SMILES CC(=O)Oc1ccccc1C(=O)O
REMARK SMILES IDX 5 1 6 2 7 3 8 4 9 5 10 6 4 7 2 8 1 9 3 10 11 11 12 12 13 13
REMARK H PARENT 13 14
REMARK Flexibility Score: inf
ROOT
ATOM      1  C   UNL A   1      13.455  24.309  24.384  1.00  0.00     0.145 A 
ATOM      2  C   UNL A   1      14.296  24.656  25.468  1.00  0.00     0.048 A 
ATOM      3  C   UNL A   1      15.617  25.042  25.258  1.00  0.00     0.004 A 
ATOM      4  C   UNL A   1      16.130  25.093  23.970  1.00  0.00     0.001 A 
ATOM      5  C   UNL A   1      15.324  24.766  22.884  1.00  0.00     0.019 A 
ATOM      6  C   UNL A   1      13.976  24.372  23.056  1.00  0.00     0.102 A 
ENDROOT
BRANCH   1   7
ATOM      7  O   UNL A   1      12.162  23.938  24.582  1.00  0.00    -0.426 OA
BRANCH   7   8
ATOM      8  C   UNL A   1      11.638  22.779  25.069  1.00  0.00     0.308 C 
ATOM      9  C   UNL A   1      11.160  22.749  26.485  1.00  0.00     0.139 C 
ATOM     10  O   UNL A   1      11.505  21.787  24.370  1.00  0.00    -0.252 OA
ENDBRANCH   7   8
ENDBRANCH   1   7
BRANCH   6  11
ATOM     11  C   UNL A   1      13.191  24.041  21.808  1.00  0.00     0.339 C 
ATOM     12  O   UNL A   1      13.461  24.629  20.773  1.00  0.00    -0.246 OA
BRANCH  11  13
ATOM     13  O   UNL A   1      12.192  23.130  21.747  1.00  0.00    -0.478 OA
ATOM     14  H   UNL A   1      11.790  22.662  22.484  1.00  0.00     0.297 HD
ENDBRANCH  11  13
ENDBRANCH   6  11
TORSDOF 4
ENDMDL
MODEL 9
REMARK VINA RESULT:    -5.772      1.811      3.260
REMARK INTER + INTRA:          -7.605
REMARK INTER:                  -7.008
REMARK INTRA:                  -0.597
REMARK UNBOUND:                -0.652
REMARK SMILES CC(=O)Oc1ccccc1C(=O)O
REMARK SMILES IDX 5 1 6 2 7 3 8 4 9 5 10 6 4 7 2 8 1 9 3 10 11 11 12 12 13 13
REMARK H PARENT 13 14
REMARK Flexibility Score: inf
ROOT
ATOM      1  C   UNL A   1      14.946  24.663  25.236  1.00  0.00     0.145 A 
ATOM      2  C   UNL A   1      13.766  24.556  26.010  1.00  0.00     0.048 A 
ATOM      3  C   UNL A   1      12.677  23.815  25.559  1.00  0.00     0.004 A 
ATOM      4  C   UNL A   1      12.737  23.164  24.335  1.00  0.00     0.001 A 
ATOM      5  C   UNL A   1      13.888  23.245  23.557  1.00  0.00     0.019 A 
ATOM      6  C   UNL A   1      15.016  23.986  23.981  1.00  0.00     0.102 A 
ENDROOT
BRANCH   1   7
ATOM      7  O   UNL A   1      16.016  25.380  25.674  1.00  0.00    -0.426 OA
BRANCH   7   8
ATOM      8  C   UNL A   1      16.404  26.654  25.389  1.00  0.00     0.308 C 
ATOM      9  C   UNL A   1      15.429  27.765  25.610  1.00  0.00     0.139 C 
ATOM     10  O   UNL A   1      17.535  26.915  25.009  1.00  0.00    -0.252 OA
ENDBRANCH   7   8
ENDBRANCH   1   7
BRANCH   6  11
ATOM     11  C   UNL A   1      16.213  24.003  23.060  1.00  0.00     0.339 C 
ATOM     12  O   UNL A   1      16.028  23.919  21.856  1.00  0.00    -0.246 OA
BRANCH  11  13
ATOM     13  O   UNL A   1      17.499  24.106  23.472  1.00  0.00    -0.478 OA
ATOM     14  H   UNL A   1      17.905  24.852  23.921  1.00  0.00     0.297 HD
ENDBRANCH  11  13
ENDBRANCH   6  11
TORSDOF 4
ENDMDL
