MODEL 1
REMARK VINA RESULT:    -8.816      0.000      0.000
REMARK INTER + INTRA:         -11.089
REMARK INTER:                 -10.620
REMARK INTRA:                  -0.469
REMARK UNBOUND:                -0.469
REMARK SMILES C[C@H](C(=O)O)c1ccc(-c2ccccc2)c(F)c1
REMARK SMILES IDX 1 1 2 2 6 3 18 4 7 5 16 6 8 7 9 8 17 9 10 10 11 11 15 12
REMARK SMILES IDX 12 13 14 14 13 15 3 16 4 17 5 18
REMARK H PARENT 5 19
REMARK Flexibility Score: inf
ROOT
ATOM      1  C   UNL A   1       9.141  22.669  27.137  1.00  0.00     0.025 C 
ATOM      2  C   UNL A   1      10.007  22.032  26.037  1.00  0.00     0.126 C 
ENDROOT
BRANCH   2   3
ATOM      3  C   UNL A   1      11.262  22.854  25.813  1.00  0.00    -0.031 A 
ATOM      4  C   UNL A   1      11.934  23.425  26.898  1.00  0.00     0.044 A 
ATOM      5  C   UNL A   1      11.772  23.056  24.525  1.00  0.00     0.005 A 
ATOM      6  C   UNL A   1      13.092  24.188  26.711  1.00  0.00     0.131 A 
ATOM      7  C   UNL A   1      12.927  23.813  24.325  1.00  0.00     0.012 A 
ATOM      8  C   UNL A   1      13.623  24.405  25.409  1.00  0.00     0.017 A 
ATOM      9  F   UNL A   1      13.683  24.668  27.830  1.00  0.00    -0.206 F 
BRANCH   8  10
ATOM     10  C   UNL A   1      14.873  25.225  25.153  1.00  0.00    -0.015 A 
ATOM     11  C   UNL A   1      14.915  26.607  25.471  1.00  0.00     0.009 A 
ATOM     12  C   UNL A   1      16.049  24.657  24.599  1.00  0.00     0.009 A 
ATOM     13  C   UNL A   1      16.061  27.372  25.239  1.00  0.00     0.001 A 
ATOM     14  C   UNL A   1      17.192  25.431  24.374  1.00  0.00     0.001 A 
ATOM     15  C   UNL A   1      17.199  26.786  24.691  1.00  0.00     0.000 A 
ENDBRANCH   8  10
ENDBRANCH   2   3
BRANCH   2  16
ATOM     16  C   UNL A   1      10.376  20.595  26.348  1.00  0.00     0.310 C 
ATOM     17  O   UNL A   1      10.011  19.681  25.624  1.00  0.00    -0.252 OA
BRANCH  16  18
ATOM     18  O   UNL A   1      11.123  20.306  27.437  1.00  0.00    -0.481 OA
ATOM     19  H   UNL A   1      11.705  19.533  27.462  1.00  0.00     0.296 HD
ENDBRANCH  16  18
ENDBRANCH   2  16
TORSDOF 4
ENDMDL
MODEL 2
REMARK VINA RESULT:    -8.810      1.182      1.640
REMARK INTER + INTRA:         -11.081
REMARK INTER:                 -10.542
REMARK INTRA:                  -0.539
REMARK UNBOUND:                -0.469
REMARK SMILES C[C@H](C(=O)O)c1ccc(-c2ccccc2)c(F)c1
REMARK SMILES IDX 1 1 2 2 6 3 18 4 7 5 16 6 8 7 9 8 17 9 10 10 11 11 15 12
REMARK SMILES IDX 12 13 14 14 13 15 3 16 4 17 5 18
REMARK H PARENT 5 19
REMARK Flexibility Score: inf
ROOT
ATOM      1  C   UNL A   1       9.254  22.730  27.144  1.00  0.00     0.025 C 
ATOM      2  C   UNL A   1      10.090  22.070  26.035  1.00  0.00     0.126 C 
ENDROOT
BRANCH   2   3
ATOM      3  C   UNL A   1      11.353  22.871  25.780  1.00  0.00    -0.031 A 
ATOM      4  C   UNL A   1      11.857  22.997  24.481  1.00  0.00     0.044 A 
ATOM      5  C   UNL A   1      12.037  23.495  26.830  1.00  0.00     0.005 A 
ATOM      6  C   UNL A   1      13.022  23.729  24.226  1.00  0.00     0.131 A 
ATOM      7  C   UNL A   1      13.199  24.229  26.587  1.00  0.00     0.012 A 
ATOM      8  C   UNL A   1      13.729  24.369  25.281  1.00  0.00     0.017 A 
ATOM      9  F   UNL A   1      13.404  23.816  22.931  1.00  0.00    -0.206 F 
BRANCH   8  10
ATOM     10  C   UNL A   1      14.997  25.172  25.056  1.00  0.00    -0.015 A 
ATOM     11  C   UNL A   1      15.060  26.546  25.404  1.00  0.00     0.009 A 
ATOM     12  C   UNL A   1      16.169  24.595  24.502  1.00  0.00     0.009 A 
ATOM     13  C   UNL A   1      16.222  27.295  25.201  1.00  0.00     0.001 A 
ATOM     14  C   UNL A   1      17.327  25.353  24.307  1.00  0.00     0.001 A 
ATOM     15  C   UNL A   1      17.355  26.700  24.653  1.00  0.00     0.000 A 
ENDBRANCH   8  10
ENDBRANCH   2   3
BRANCH   2  16
ATOM     16  C   UNL A   1      10.444  20.630  26.354  1.00  0.00     0.310 C 
ATOM     17  O   UNL A   1      10.128  19.724  25.598  1.00  0.00    -0.252 OA
BRANCH  16  18
ATOM     18  O   UNL A   1      11.122  20.332  27.485  1.00  0.00    -0.481 OA
ATOM     19  H   UNL A   1      11.626  19.511  27.571  1.00  0.00     0.296 HD
ENDBRANCH  16  18
ENDBRANCH   2  16
TORSDOF 4
ENDMDL
MODEL 3
REMARK VINA RESULT:    -8.426      3.305      6.646
REMARK INTER + INTRA:         -10.618
REMARK INTER:                 -10.232
REMARK INTRA:                  -0.387
REMARK UNBOUND:                -0.469
REMARK SMILES C[C@H](C(=O)O)c1ccc(-c2ccccc2)c(F)c1
REMARK SMILES IDX 1 1 2 2 6 3 18 4 7 5 16 6 8 7 9 8 17 9 10 10 11 11 15 12
REMARK SMILES IDX 12 13 14 14 13 15 3 16 4 17 5 18
REMARK H PARENT 5 19
REMARK Flexibility Score: inf
ROOT
ATOM      1  C   UNL A   1      17.031  24.717  22.820  1.00  0.00     0.025 C 
ATOM      2  C   UNL A   1      16.096  25.692  23.555  1.00  0.00     0.126 C 
ENDROOT
BRANCH   2   3
ATOM      3  C   UNL A   1      14.902  24.951  24.125  1.00  0.00    -0.031 A 
ATOM      4  C   UNL A   1      14.603  25.038  25.488  1.00  0.00     0.044 A 
ATOM      5  C   UNL A   1      14.079  24.169  23.305  1.00  0.00     0.005 A 
ATOM      6  C   UNL A   1      13.507  24.359  26.032  1.00  0.00     0.131 A 
ATOM      7  C   UNL A   1      12.982  23.490  23.835  1.00  0.00     0.012 A 
ATOM      8  C   UNL A   1      12.661  23.560  25.214  1.00  0.00     0.017 A 
ATOM      9  F   UNL A   1      13.287  24.538  27.356  1.00  0.00    -0.206 F 
BRANCH   8  10
ATOM     10  C   UNL A   1      11.462  22.804  25.755  1.00  0.00    -0.015 A 
ATOM     11  C   UNL A   1      11.456  21.387  25.802  1.00  0.00     0.009 A 
ATOM     12  C   UNL A   1      10.307  23.468  26.243  1.00  0.00     0.009 A 
ATOM     13  C   UNL A   1      10.357  20.680  26.298  1.00  0.00     0.001 A 
ATOM     14  C   UNL A   1       9.215  22.751  26.741  1.00  0.00     0.001 A 
ATOM     15  C   UNL A   1       9.238  21.361  26.767  1.00  0.00     0.000 A 
ENDBRANCH   8  10
ENDBRANCH   2   3
BRANCH   2  16
ATOM     16  C   UNL A   1      16.806  26.457  24.656  1.00  0.00     0.310 C 
ATOM     17  O   UNL A   1      16.433  27.573  24.986  1.00  0.00    -0.252 OA
BRANCH  16  18
ATOM     18  O   UNL A   1      17.862  25.906  25.294  1.00  0.00    -0.481 OA
ATOM     19  H   UNL A   1      18.727  25.828  24.867  1.00  0.00     0.296 HD
ENDBRANCH  16  18
ENDBRANCH   2  16
TORSDOF 4
ENDMDL
MODEL 4
REMARK VINA RESULT:    -8.406      3.307      6.562
REMARK INTER + INTRA:         -10.594
REMARK INTER:                 -10.215
REMARK INTRA:                  -0.379
REMARK UNBOUND:                -0.469
REMARK SMILES C[C@H](C(=O)O)c1ccc(-c2ccccc2)c(F)c1
REMARK SMILES IDX 1 1 2 2 6 3 18 4 7 5 16 6 8 7 9 8 17 9 10 10 11 11 15 12
REMARK SMILES IDX 12 13 14 14 13 15 3 16 4 17 5 18
REMARK H PARENT 5 19
REMARK Flexibility Score: inf
ROOT
ATOM      1  C   UNL A   1      17.053  24.726  22.835  1.00  0.00     0.025 C 
ATOM      2  C   UNL A   1      16.112  25.685  23.582  1.00  0.00     0.126 C 
ENDROOT
BRANCH   2   3
ATOM      3  C   UNL A   1      14.923  24.928  24.142  1.00  0.00    -0.031 A 
ATOM      4  C   UNL A   1      14.601  25.024  25.500  1.00  0.00     0.044 A 
ATOM      5  C   UNL A   1      14.127  24.123  23.318  1.00  0.00     0.005 A 
ATOM      6  C   UNL A   1      13.510  24.331  26.034  1.00  0.00     0.131 A 
ATOM      7  C   UNL A   1      13.034  23.429  23.839  1.00  0.00     0.012 A 
ATOM      8  C   UNL A   1      12.691  23.509  25.212  1.00  0.00     0.017 A 
ATOM      9  F   UNL A   1      13.266  24.520  27.352  1.00  0.00    -0.206 F 
BRANCH   8  10
ATOM     10  C   UNL A   1      11.498  22.737  25.744  1.00  0.00    -0.015 A 
ATOM     11  C   UNL A   1      10.354  23.414  26.237  1.00  0.00     0.009 A 
ATOM     12  C   UNL A   1      11.465  21.319  25.767  1.00  0.00     0.009 A 
ATOM     13  C   UNL A   1       9.249  22.713  26.729  1.00  0.00     0.001 A 
ATOM     14  C   UNL A   1      10.354  20.627  26.259  1.00  0.00     0.001 A 
ATOM     15  C   UNL A   1       9.249  21.322  26.741  1.00  0.00     0.000 A 
ENDBRANCH   8  10
ENDBRANCH   2   3
BRANCH   2  16
ATOM     16  C   UNL A   1      16.816  26.440  24.694  1.00  0.00     0.310 C 
ATOM     17  O   UNL A   1      17.804  25.975  25.241  1.00  0.00    -0.252 OA
BRANCH  16  18
ATOM     18  O   UNL A   1      16.357  27.648  25.090  1.00  0.00    -0.481 OA
ATOM     19  H   UNL A   1      16.609  28.031  25.941  1.00  0.00     0.296 HD
ENDBRANCH  16  18
ENDBRANCH   2  16
TORSDOF 4
ENDMDL
MODEL 5
REMARK VINA RESULT:    -8.274      3.541      6.864
REMARK INTER + INTRA:         -10.436
REMARK INTER:                 -10.031
REMARK INTRA:                  -0.405
REMARK UNBOUND:                -0.469
REMARK SMILES C[C@H](C(=O)O)c1ccc(-c2ccccc2)c(F)c1
REMARK SMILES IDX 1 1 2 2 6 3 18 4 7 5 16 6 8 7 9 8 17 9 10 10 11 11 15 12
REMARK SMILES IDX 12 13 14 14 13 15 3 16 4 17 5 18
REMARK H PARENT 5 19
REMARK Flexibility Score: inf
ROOT
ATOM      1  C   UNL A   1      16.968  24.807  22.734  1.00  0.00     0.025 C 
ATOM      2  C   UNL A   1      16.050  25.756  23.521  1.00  0.00     0.126 C 
ENDROOT
BRANCH   2   3
ATOM      3  C   UNL A   1      14.857  24.999  24.073  1.00  0.00    -0.031 A 
ATOM      4  C   UNL A   1      14.018  24.282  23.214  1.00  0.00     0.044 A 
ATOM      5  C   UNL A   1      14.571  25.002  25.443  1.00  0.00     0.005 A 
ATOM      6  C   UNL A   1      12.911  23.580  23.704  1.00  0.00     0.131 A 
ATOM      7  C   UNL A   1      13.471  24.304  25.944  1.00  0.00     0.012 A 
ATOM      8  C   UNL A   1      12.606  23.573  25.093  1.00  0.00     0.017 A 
ATOM      9  F   UNL A   1      12.185  22.891  22.792  1.00  0.00    -0.206 F 
BRANCH   8  10
ATOM     10  C   UNL A   1      11.418  22.829  25.673  1.00  0.00    -0.015 A 
ATOM     11  C   UNL A   1      11.387  21.411  25.697  1.00  0.00     0.009 A 
ATOM     12  C   UNL A   1      10.297  23.505  26.220  1.00  0.00     0.009 A 
ATOM     13  C   UNL A   1      10.298  20.715  26.229  1.00  0.00     0.001 A 
ATOM     14  C   UNL A   1       9.214  22.799  26.753  1.00  0.00     0.001 A 
ATOM     15  C   UNL A   1       9.212  21.408  26.756  1.00  0.00     0.000 A 
ENDBRANCH   8  10
ENDBRANCH   2   3
BRANCH   2  16
ATOM     16  C   UNL A   1      16.777  26.468  24.645  1.00  0.00     0.310 C 
ATOM     17  O   UNL A   1      16.429  27.580  25.013  1.00  0.00    -0.252 OA
BRANCH  16  18
ATOM     18  O   UNL A   1      17.824  25.874  25.259  1.00  0.00    -0.481 OA
ATOM     19  H   UNL A   1      18.627  25.636  24.775  1.00  0.00     0.296 HD
ENDBRANCH  16  18
ENDBRANCH   2  16
TORSDOF 4
ENDMDL
MODEL 6
REMARK VINA RESULT:    -7.697      4.257      5.328
REMARK INTER + INTRA:          -9.740
REMARK INTER:                  -9.407
REMARK INTRA:                  -0.333
REMARK UNBOUND:                -0.469
REMARK SMILES C[C@H](C(=O)O)c1ccc(-c2ccccc2)c(F)c1
REMARK SMILES IDX 1 1 2 2 6 3 18 4 7 5 16 6 8 7 9 8 17 9 10 10 11 11 15 12
REMARK SMILES IDX 12 13 14 14 13 15 3 16 4 17 5 18
REMARK H PARENT 5 19
REMARK Flexibility Score: inf
ROOT
ATOM      1  C   UNL A   1      11.522  20.810  20.019  1.00  0.00     0.025 C 
ATOM      2  C   UNL A   1      11.447  22.305  19.667  1.00  0.00     0.126 C 
ENDROOT
BRANCH   2   3
ATOM      3  C   UNL A   1      12.254  23.122  20.659  1.00  0.00    -0.031 A 
ATOM      4  C   UNL A   1      12.092  22.922  22.033  1.00  0.00     0.044 A 
ATOM      5  C   UNL A   1      13.171  24.086  20.223  1.00  0.00     0.005 A 
ATOM      6  C   UNL A   1      12.824  23.667  22.964  1.00  0.00     0.131 A 
ATOM      7  C   UNL A   1      13.909  24.834  21.141  1.00  0.00     0.012 A 
ATOM      8  C   UNL A   1      13.760  24.651  22.539  1.00  0.00     0.017 A 
ATOM      9  F   UNL A   1      12.616  23.372  24.268  1.00  0.00    -0.206 F 
BRANCH   8  10
ATOM     10  C   UNL A   1      14.577  25.486  23.507  1.00  0.00    -0.015 A 
ATOM     11  C   UNL A   1      15.990  25.542  23.406  1.00  0.00     0.009 A 
ATOM     12  C   UNL A   1      13.976  26.247  24.542  1.00  0.00     0.009 A 
ATOM     13  C   UNL A   1      16.753  26.307  24.293  1.00  0.00     0.001 A 
ATOM     14  C   UNL A   1      14.748  27.012  25.421  1.00  0.00     0.001 A 
ATOM     15  C   UNL A   1      16.133  27.042  25.299  1.00  0.00     0.000 A 
ENDBRANCH   8  10
ENDBRANCH   2   3
BRANCH   2  16
ATOM     16  C   UNL A   1      11.917  22.593  18.254  1.00  0.00     0.310 C 
ATOM     17  O   UNL A   1      12.685  21.836  17.681  1.00  0.00    -0.252 OA
BRANCH  16  18
ATOM     18  O   UNL A   1      11.483  23.697  17.607  1.00  0.00    -0.481 OA
ATOM     19  H   UNL A   1      11.596  24.582  17.982  1.00  0.00     0.296 HD
ENDBRANCH  16  18
ENDBRANCH   2  16
TORSDOF 4
ENDMDL
MODEL 7
REMARK VINA RESULT:    -7.424      1.650      2.213
REMARK INTER + INTRA:          -9.412
REMARK INTER:                  -8.966
REMARK INTRA:                  -0.446
REMARK UNBOUND:                -0.469
REMARK SMILES C[C@H](C(=O)O)c1ccc(-c2ccccc2)c(F)c1
REMARK SMILES IDX 1 1 2 2 6 3 18 4 7 5 16 6 8 7 9 8 17 9 10 10 11 11 15 12
REMARK SMILES IDX 12 13 14 14 13 15 3 16 4 17 5 18
REMARK H PARENT 5 19
REMARK Flexibility Score: inf
ROOT
ATOM      1  C   UNL A   1      10.000  20.625  26.348  1.00  0.00     0.025 C 
ATOM      2  C   UNL A   1      10.395  21.932  27.055  1.00  0.00     0.126 C 
ENDROOT
BRANCH   2   3
ATOM      3  C   UNL A   1      11.567  22.582  26.346  1.00  0.00    -0.031 A 
ATOM      4  C   UNL A   1      12.354  23.530  27.009  1.00  0.00     0.044 A 
ATOM      5  C   UNL A   1      11.886  22.251  25.024  1.00  0.00     0.005 A 
ATOM      6  C   UNL A   1      13.438  24.143  26.371  1.00  0.00     0.131 A 
ATOM      7  C   UNL A   1      12.966  22.853  24.378  1.00  0.00     0.012 A 
ATOM      8  C   UNL A   1      13.775  23.818  25.027  1.00  0.00     0.017 A 
ATOM      9  F   UNL A   1      14.154  25.020  27.112  1.00  0.00    -0.206 F 
BRANCH   8  10
ATOM     10  C   UNL A   1      14.939  24.455  24.292  1.00  0.00    -0.015 A 
ATOM     11  C   UNL A   1      15.673  23.726  23.321  1.00  0.00     0.009 A 
ATOM     12  C   UNL A   1      15.341  25.795  24.528  1.00  0.00     0.009 A 
ATOM     13  C   UNL A   1      16.747  24.302  22.637  1.00  0.00     0.001 A 
ATOM     14  C   UNL A   1      16.414  26.363  23.836  1.00  0.00     0.001 A 
ATOM     15  C   UNL A   1      17.118  25.619  22.895  1.00  0.00     0.000 A 
ENDBRANCH   8  10
ENDBRANCH   2   3
BRANCH   2  16
ATOM     16  C   UNL A   1       9.240  22.911  27.153  1.00  0.00     0.310 C 
ATOM     17  O   UNL A   1       8.563  23.184  26.173  1.00  0.00    -0.252 OA
BRANCH  16  18
ATOM     18  O   UNL A   1       8.942  23.492  28.336  1.00  0.00    -0.481 OA
ATOM     19  H   UNL A   1       9.436  24.257  28.663  1.00  0.00     0.296 HD
ENDBRANCH  16  18
ENDBRANCH   2  16
TORSDOF 4
ENDMDL
MODEL 8
REMARK VINA RESULT:    -7.049     10.240     12.576
REMARK INTER + INTRA:          -8.960
REMARK INTER:                  -8.366
REMARK INTRA:                  -0.594
REMARK UNBOUND:                -0.469
REMARK SMILES C[C@H](C(=O)O)c1ccc(-c2ccccc2)c(F)c1
REMARK SMILES IDX 1 1 2 2 6 3 18 4 7 5 16 6 8 7 9 8 17 9 10 10 11 11 15 12
REMARK SMILES IDX 12 13 14 14 13 15 3 16 4 17 5 18
REMARK H PARENT 5 19
REMARK Flexibility Score: inf
ROOT
ATOM      1  C   UNL A   1      11.500  14.149  27.528  1.00  0.00     0.025 C 
ATOM      2  C   UNL A   1      10.773  13.327  26.451  1.00  0.00     0.126 C 
ENDROOT
BRANCH   2   3
ATOM      3  C   UNL A   1       9.291  13.650  26.451  1.00  0.00    -0.031 A 
ATOM      4  C   UNL A   1       8.859  14.977  26.546  1.00  0.00     0.044 A 
ATOM      5  C   UNL A   1       8.330  12.636  26.359  1.00  0.00     0.005 A 
ATOM      6  C   UNL A   1       7.496  15.295  26.550  1.00  0.00     0.131 A 
ATOM      7  C   UNL A   1       6.969  12.940  26.360  1.00  0.00     0.012 A 
ATOM      8  C   UNL A   1       6.507  14.276  26.457  1.00  0.00     0.017 A 
ATOM      9  F   UNL A   1       7.186  16.611  26.611  1.00  0.00    -0.206 F 
BRANCH   8  10
ATOM     10  C   UNL A   1       5.018  14.569  26.460  1.00  0.00    -0.015 A 
ATOM     11  C   UNL A   1       4.205  14.196  27.561  1.00  0.00     0.009 A 
ATOM     12  C   UNL A   1       4.375  15.227  25.380  1.00  0.00     0.009 A 
ATOM     13  C   UNL A   1       2.833  14.460  27.574  1.00  0.00     0.001 A 
ATOM     14  C   UNL A   1       3.002  15.489  25.405  1.00  0.00     0.001 A 
ATOM     15  C   UNL A   1       2.231  15.106  26.497  1.00  0.00     0.000 A 
ENDBRANCH   8  10
ENDBRANCH   2   3
BRANCH   2  16
ATOM     16  C   UNL A   1      11.351  13.544  25.066  1.00  0.00     0.310 C 
ATOM     17  O   UNL A   1      11.050  12.809  24.138  1.00  0.00    -0.252 OA
BRANCH  16  18
ATOM     18  O   UNL A   1      12.208  14.564  24.840  1.00  0.00    -0.481 OA
ATOM     19  H   UNL A   1      12.255  15.006  23.981  1.00  0.00     0.296 HD
ENDBRANCH  16  18
ENDBRANCH   2  16
TORSDOF 4
ENDMDL
MODEL 9
REMARK VINA RESULT:    -7.014      4.655      6.513
REMARK INTER + INTRA:          -8.918
REMARK INTER:                  -8.624
REMARK INTRA:                  -0.294
REMARK UNBOUND:                -0.469
REMARK SMILES C[C@H](C(=O)O)c1ccc(-c2ccccc2)c(F)c1
REMARK SMILES IDX 1 1 2 2 6 3 18 4 7 5 16 6 8 7 9 8 17 9 10 10 11 11 15 12
REMARK SMILES IDX 12 13 14 14 13 15 3 16 4 17 5 18
REMARK H PARENT 5 19
REMARK Flexibility Score: inf
ROOT
ATOM      1  C   UNL A   1      13.771  24.995  26.656  1.00  0.00     0.025 C 
ATOM      2  C   UNL A   1      14.841  25.272  25.587  1.00  0.00     0.126 C 
ENDROOT
BRANCH   2   3
ATOM      3  C   UNL A   1      14.347  24.838  24.221  1.00  0.00    -0.031 A 
ATOM      4  C   UNL A   1      13.191  24.060  24.104  1.00  0.00     0.044 A 
ATOM      5  C   UNL A   1      15.033  25.203  23.056  1.00  0.00     0.005 A 
ATOM      6  C   UNL A   1      12.721  23.647  22.852  1.00  0.00     0.131 A 
ATOM      7  C   UNL A   1      14.573  24.799  21.802  1.00  0.00     0.012 A 
ATOM      8  C   UNL A   1      13.405  24.009  21.658  1.00  0.00     0.017 A 
ATOM      9  F   UNL A   1      11.576  22.927  22.848  1.00  0.00    -0.206 F 
BRANCH   8  10
ATOM     10  C   UNL A   1      12.938  23.585  20.279  1.00  0.00    -0.015 A 
ATOM     11  C   UNL A   1      13.434  24.225  19.114  1.00  0.00     0.009 A 
ATOM     12  C   UNL A   1      12.000  22.538  20.086  1.00  0.00     0.009 A 
ATOM     13  C   UNL A   1      13.010  23.844  17.837  1.00  0.00     0.001 A 
ATOM     14  C   UNL A   1      11.586  22.163  18.805  1.00  0.00     0.001 A 
ATOM     15  C   UNL A   1      12.087  22.814  17.683  1.00  0.00     0.000 A 
ENDBRANCH   8  10
ENDBRANCH   2   3
BRANCH   2  16
ATOM     16  C   UNL A   1      15.260  26.729  25.549  1.00  0.00     0.310 C 
ATOM     17  O   UNL A   1      16.433  27.049  25.663  1.00  0.00    -0.252 OA
BRANCH  16  18
ATOM     18  O   UNL A   1      14.332  27.698  25.382  1.00  0.00    -0.481 OA
ATOM     19  H   UNL A   1      13.925  27.866  24.521  1.00  0.00     0.296 HD
ENDBRANCH  16  18
ENDBRANCH   2  16
TORSDOF 4
ENDMDL
