REMARK SMILES C[C@H](C(=O)O)c1ccc(-c2ccccc2)c(F)c1
REMARK SMILES IDX 1 1 2 2 6 3 18 4 7 5 16 6 8 7 9 8 17 9 10 10 11 11 15 12
REMARK SMILES IDX 12 13 14 14 13 15 3 16 4 17 5 18
REMARK H PARENT 5 19
REMARK Flexibility Score: inf
ROOT
ATOM      1  C   UNL A   1       2.882   0.513   1.393  1.00  0.00     0.025 C 
ATOM      2  C   UNL A   1       2.594   0.150  -0.073  1.00  0.00     0.126 C 
ENDROOT
BRANCH   2   3
ATOM      3  C   UNL A   1       3.041  -1.270  -0.363  1.00  0.00    -0.031 A 
ATOM      4  C   UNL A   1       4.058  -1.513  -1.292  1.00  0.00     0.044 A 
ATOM      5  C   UNL A   1       2.450  -2.360   0.287  1.00  0.00     0.005 A 
ATOM      6  C   UNL A   1       4.482  -2.816  -1.575  1.00  0.00     0.131 A 
ATOM      7  C   UNL A   1       2.866  -3.664   0.015  1.00  0.00     0.012 A 
ATOM      8  C   UNL A   1       3.892  -3.935  -0.924  1.00  0.00     0.017 A 
ATOM      9  F   UNL A   1       5.495  -2.938  -2.464  1.00  0.00    -0.206 F 
BRANCH   8  10
ATOM     10  C   UNL A   1       4.315  -5.366  -1.197  1.00  0.00    -0.015 A 
ATOM     11  C   UNL A   1       4.000  -6.405  -0.284  1.00  0.00     0.009 A 
ATOM     12  C   UNL A   1       5.030  -5.733  -2.366  1.00  0.00     0.009 A 
ATOM     13  C   UNL A   1       4.385  -7.727  -0.525  1.00  0.00     0.001 A 
ATOM     14  C   UNL A   1       5.407  -7.059  -2.599  1.00  0.00     0.001 A 
ATOM     15  C   UNL A   1       5.088  -8.054  -1.681  1.00  0.00     0.000 A 
ENDBRANCH   8  10
ENDBRANCH   2   3
BRANCH   2  16
ATOM     16  C   UNL A   1       1.131   0.318  -0.436  1.00  0.00     0.310 C 
ATOM     17  O   UNL A   1       0.310   0.654   0.404  1.00  0.00    -0.252 OA
BRANCH  16  18
ATOM     18  O   UNL A   1       0.717   0.101  -1.704  1.00  0.00    -0.481 OA
ATOM     19  H   UNL A   1       1.335  -0.160  -2.401  1.00  0.00     0.296 HD
ENDBRANCH  16  18
ENDBRANCH   2  16
TORSDOF 4
