REMARK SMILES O=C(O)Cc1ccccc1Nc1c(Cl)cccc1Cl
REMARK SMILES IDX 7 1 8 2 9 3 10 4 5 5 6 6 4 7 2 8 1 9 3 10 11 12 12 14 18 15
REMARK SMILES IDX 13 16 17 17 19 18 15 19 14 20 16 21
REMARK H PARENT 3 11 11 13
REMARK Flexibility Score: inf
ROOT
ATOM      1  C   UNL A   1       1.388  -0.117   0.122  1.00  0.00     0.000 A 
ATOM      2  C   UNL A   1       0.587  -1.212  -0.189  1.00  0.00     0.002 A 
ATOM      3  C   UNL A   1      -0.794  -1.059  -0.304  1.00  0.00     0.026 A 
ATOM      4  C   UNL A   1      -1.408   0.196  -0.102  1.00  0.00     0.042 A 
ATOM      5  C   UNL A   1      -0.578   1.320   0.182  1.00  0.00    -0.013 A 
ATOM      6  C   UNL A   1       0.812   1.138   0.305  1.00  0.00     0.006 A 
ENDROOT
BRANCH   5   7
ATOM      7  C   UNL A   1      -1.140   2.715   0.387  1.00  0.00     0.160 C 
BRANCH   7   8
ATOM      8  C   UNL A   1      -1.707   3.358  -0.861  1.00  0.00     0.307 C 
ATOM      9  O   UNL A   1      -2.207   4.467  -0.768  1.00  0.00    -0.252 OA
BRANCH   8  10
ATOM     10  O   UNL A   1      -1.666   2.766  -2.078  1.00  0.00    -0.481 OA
ATOM     11  H   UNL A   1      -1.260   1.905  -2.240  1.00  0.00     0.296 HD
ENDBRANCH   8  10
ENDBRANCH   7   8
ENDBRANCH   5   7
BRANCH   4  12
ATOM     12  N   UNL A   1      -2.831   0.347  -0.227  1.00  0.00    -0.353 N 
ATOM     13  H   UNL A   1      -3.191   1.284  -0.443  1.00  0.00     0.167 HD
BRANCH  12  14
ATOM     14  C   UNL A   1      -3.795  -0.714  -0.225  1.00  0.00     0.076 A 
ATOM     15  C   UNL A   1      -3.742  -1.800   0.694  1.00  0.00     0.066 A 
ATOM     16  C   UNL A   1      -4.876  -0.654  -1.136  1.00  0.00     0.066 A 
ATOM     17  C   UNL A   1      -4.724  -2.797   0.654  1.00  0.00     0.023 A 
ATOM     18  Cl  UNL A   1      -2.546  -1.927   1.984  1.00  0.00    -0.082 Cl
ATOM     19  C   UNL A   1      -5.841  -1.666  -1.160  1.00  0.00     0.023 A 
ATOM     20  Cl  UNL A   1      -5.035   0.663  -2.294  1.00  0.00    -0.082 Cl
ATOM     21  C   UNL A   1      -5.762  -2.736  -0.273  1.00  0.00     0.003 A 
ENDBRANCH  12  14
ENDBRANCH   4  12
TORSDOF 5
