MODEL 1
REMARK VINA RESULT:    -8.300      0.000      0.000
REMARK INTER + INTRA:          -9.987
REMARK INTER:                 -10.484
REMARK INTRA:                   0.497
REMARK UNBOUND:                 0.497
REMARK SMILES O=C(O)Cc1ccccc1Nc1c(Cl)cccc1Cl
REMARK SMILES IDX 7 1 8 2 9 3 10 4 5 5 6 6 4 7 2 8 1 9 3 10 11 12 12 14 18 15
REMARK SMILES IDX 13 16 17 17 19 18 15 19 14 20 16 21
REMARK H PARENT 3 11 11 13
REMARK Flexibility Score: inf
ROOT
ATOM      1  C   UNL A   1      11.681  22.752  24.768  1.00  0.00     0.000 A 
ATOM      2  C   UNL A   1      12.406  23.534  25.662  1.00  0.00     0.002 A 
ATOM      3  C   UNL A   1      13.332  24.463  25.188  1.00  0.00     0.026 A 
ATOM      4  C   UNL A   1      13.559  24.625  23.804  1.00  0.00     0.042 A 
ATOM      5  C   UNL A   1      12.788  23.845  22.893  1.00  0.00    -0.013 A 
ATOM      6  C   UNL A   1      11.869  22.905  23.396  1.00  0.00     0.006 A 
ENDROOT
BRANCH   5   7
ATOM      7  C   UNL A   1      12.939  23.967  21.388  1.00  0.00     0.160 C 
BRANCH   7   8
ATOM      8  C   UNL A   1      12.045  23.045  20.586  1.00  0.00     0.307 C 
ATOM      9  O   UNL A   1      11.472  22.139  21.169  1.00  0.00    -0.252 OA
BRANCH   8  10
ATOM     10  O   UNL A   1      11.838  23.193  19.256  1.00  0.00    -0.481 OA
ATOM     11  H   UNL A   1      11.671  22.455  18.656  1.00  0.00     0.296 HD
ENDBRANCH   8  10
ENDBRANCH   7   8
ENDBRANCH   5   7
BRANCH   4  12
ATOM     12  N   UNL A   1      14.511  25.587  23.323  1.00  0.00    -0.353 N 
ATOM     13  H   UNL A   1      14.163  26.332  22.709  1.00  0.00     0.167 HD
BRANCH  12  14
ATOM     14  C   UNL A   1      15.880  25.698  23.735  1.00  0.00     0.076 A 
ATOM     15  C   UNL A   1      16.303  26.582  24.768  1.00  0.00     0.066 A 
ATOM     16  C   UNL A   1      16.843  24.857  23.131  1.00  0.00     0.066 A 
ATOM     17  C   UNL A   1      17.653  26.631  25.135  1.00  0.00     0.023 A 
ATOM     18  Cl  UNL A   1      15.195  27.575  25.716  1.00  0.00    -0.082 Cl
ATOM     19  C   UNL A   1      18.187  24.930  23.511  1.00  0.00     0.023 A 
ATOM     20  Cl  UNL A   1      16.407  23.718  21.861  1.00  0.00    -0.082 Cl
ATOM     21  C   UNL A   1      18.592  25.818  24.504  1.00  0.00     0.003 A 
ENDBRANCH  12  14
ENDBRANCH   4  12
TORSDOF 5
ENDMDL
MODEL 2
REMARK VINA RESULT:    -8.272      0.100      2.129
REMARK INTER + INTRA:          -9.951
REMARK INTER:                 -10.414
REMARK INTRA:                   0.463
REMARK UNBOUND:                 0.497
REMARK SMILES O=C(O)Cc1ccccc1Nc1c(Cl)cccc1Cl
REMARK SMILES IDX 7 1 8 2 9 3 10 4 5 5 6 6 4 7 2 8 1 9 3 10 11 12 12 14 18 15
REMARK SMILES IDX 13 16 17 17 19 18 15 19 14 20 16 21
REMARK H PARENT 3 11 11 13
REMARK Flexibility Score: inf
ROOT
ATOM      1  C   UNL A   1      11.662  22.720  24.824  1.00  0.00     0.000 A 
ATOM      2  C   UNL A   1      12.345  23.507  25.747  1.00  0.00     0.002 A 
ATOM      3  C   UNL A   1      13.269  24.455  25.310  1.00  0.00     0.026 A 
ATOM      4  C   UNL A   1      13.536  24.634  23.935  1.00  0.00     0.042 A 
ATOM      5  C   UNL A   1      12.807  23.850  22.994  1.00  0.00    -0.013 A 
ATOM      6  C   UNL A   1      11.889  22.890  23.460  1.00  0.00     0.006 A 
ENDROOT
BRANCH   5   7
ATOM      7  C   UNL A   1      13.002  23.988  21.495  1.00  0.00     0.160 C 
BRANCH   7   8
ATOM      8  C   UNL A   1      12.099  23.109  20.656  1.00  0.00     0.307 C 
ATOM      9  O   UNL A   1      11.532  22.174  21.197  1.00  0.00    -0.252 OA
BRANCH   8  10
ATOM     10  O   UNL A   1      11.878  23.326  19.338  1.00  0.00    -0.481 OA
ATOM     11  H   UNL A   1      12.579  23.522  18.704  1.00  0.00     0.296 HD
ENDBRANCH   8  10
ENDBRANCH   7   8
ENDBRANCH   5   7
BRANCH   4  12
ATOM     12  N   UNL A   1      14.486  25.617  23.493  1.00  0.00    -0.353 N 
ATOM     13  H   UNL A   1      14.122  26.433  22.987  1.00  0.00     0.167 HD
BRANCH  12  14
ATOM     14  C   UNL A   1      15.882  25.645  23.815  1.00  0.00     0.076 A 
ATOM     15  C   UNL A   1      16.841  24.825  23.157  1.00  0.00     0.066 A 
ATOM     16  C   UNL A   1      16.338  26.566  24.789  1.00  0.00     0.066 A 
ATOM     17  C   UNL A   1      18.194  24.912  23.507  1.00  0.00     0.023 A 
ATOM     18  Cl  UNL A   1      16.445  23.746  21.819  1.00  0.00    -0.082 Cl
ATOM     19  C   UNL A   1      17.694  26.629  25.126  1.00  0.00     0.023 A 
ATOM     20  Cl  UNL A   1      15.227  27.636  25.639  1.00  0.00    -0.082 Cl
ATOM     21  C   UNL A   1      18.617  25.801  24.492  1.00  0.00     0.003 A 
ENDBRANCH  12  14
ENDBRANCH   4  12
TORSDOF 5
ENDMDL
MODEL 3
REMARK VINA RESULT:    -8.061      3.613      6.306
REMARK INTER + INTRA:          -9.684
REMARK INTER:                  -9.723
REMARK INTRA:                   0.039
REMARK UNBOUND:                 0.497
REMARK SMILES O=C(O)Cc1ccccc1Nc1c(Cl)cccc1Cl
REMARK SMILES IDX 7 1 8 2 9 3 10 4 5 5 6 6 4 7 2 8 1 9 3 10 11 12 12 14 18 15
REMARK SMILES IDX 13 16 17 17 19 18 15 19 14 20 16 21
REMARK H PARENT 3 11 11 13
REMARK Flexibility Score: inf
ROOT
ATOM      1  C   UNL A   1      17.141  24.882  22.813  1.00  0.00     0.000 A 
ATOM      2  C   UNL A   1      16.269  23.846  22.495  1.00  0.00     0.002 A 
ATOM      3  C   UNL A   1      14.958  23.863  22.971  1.00  0.00     0.026 A 
ATOM      4  C   UNL A   1      14.492  24.918  23.785  1.00  0.00     0.042 A 
ATOM      5  C   UNL A   1      15.381  25.994  24.077  1.00  0.00    -0.013 A 
ATOM      6  C   UNL A   1      16.702  25.948  23.595  1.00  0.00     0.006 A 
ENDROOT
BRANCH   5   7
ATOM      7  C   UNL A   1      14.965  27.187  24.918  1.00  0.00     0.160 C 
BRANCH   7   8
ATOM      8  C   UNL A   1      15.981  27.613  25.957  1.00  0.00     0.307 C 
ATOM      9  O   UNL A   1      17.142  27.266  25.812  1.00  0.00    -0.252 OA
BRANCH   8  10
ATOM     10  O   UNL A   1      15.662  28.377  27.029  1.00  0.00    -0.481 OA
ATOM     11  H   UNL A   1      15.462  28.016  27.902  1.00  0.00     0.296 HD
ENDBRANCH   8  10
ENDBRANCH   7   8
ENDBRANCH   5   7
BRANCH   4  12
ATOM     12  N   UNL A   1      13.139  24.932  24.267  1.00  0.00    -0.353 N 
ATOM     13  H   UNL A   1      12.547  25.726  23.996  1.00  0.00     0.167 HD
BRANCH  12  14
ATOM     14  C   UNL A   1      12.484  23.869  24.972  1.00  0.00     0.076 A 
ATOM     15  C   UNL A   1      11.728  22.860  24.311  1.00  0.00     0.066 A 
ATOM     16  C   UNL A   1      12.639  23.785  26.376  1.00  0.00     0.066 A 
ATOM     17  C   UNL A   1      11.125  21.839  25.057  1.00  0.00     0.023 A 
ATOM     18  Cl  UNL A   1      11.577  22.746  22.558  1.00  0.00    -0.082 Cl
ATOM     19  C   UNL A   1      12.022  22.759  27.098  1.00  0.00     0.023 A 
ATOM     20  Cl  UNL A   1      13.575  24.977  27.273  1.00  0.00    -0.082 Cl
ATOM     21  C   UNL A   1      11.264  21.794  26.442  1.00  0.00     0.003 A 
ENDBRANCH  12  14
ENDBRANCH   4  12
TORSDOF 5
ENDMDL
MODEL 4
REMARK VINA RESULT:    -8.001      3.600      6.010
REMARK INTER + INTRA:          -9.608
REMARK INTER:                  -9.738
REMARK INTRA:                   0.130
REMARK UNBOUND:                 0.497
REMARK SMILES O=C(O)Cc1ccccc1Nc1c(Cl)cccc1Cl
REMARK SMILES IDX 7 1 8 2 9 3 10 4 5 5 6 6 4 7 2 8 1 9 3 10 11 12 12 14 18 15
REMARK SMILES IDX 13 16 17 17 19 18 15 19 14 20 16 21
REMARK H PARENT 3 11 11 13
REMARK Flexibility Score: inf
ROOT
ATOM      1  C   UNL A   1      17.122  24.894  22.737  1.00  0.00     0.000 A 
ATOM      2  C   UNL A   1      16.261  23.863  22.372  1.00  0.00     0.002 A 
ATOM      3  C   UNL A   1      14.948  23.847  22.842  1.00  0.00     0.026 A 
ATOM      4  C   UNL A   1      14.468  24.862  23.698  1.00  0.00     0.042 A 
ATOM      5  C   UNL A   1      15.345  25.933  24.041  1.00  0.00    -0.013 A 
ATOM      6  C   UNL A   1      16.669  25.920  23.563  1.00  0.00     0.006 A 
ENDROOT
BRANCH   5   7
ATOM      7  C   UNL A   1      14.915  27.084  24.931  1.00  0.00     0.160 C 
BRANCH   7   8
ATOM      8  C   UNL A   1      15.962  27.542  25.924  1.00  0.00     0.307 C 
ATOM      9  O   UNL A   1      17.120  27.201  25.746  1.00  0.00    -0.252 OA
BRANCH   8  10
ATOM     10  O   UNL A   1      15.675  28.329  26.987  1.00  0.00    -0.481 OA
ATOM     11  H   UNL A   1      14.993  29.012  26.977  1.00  0.00     0.296 HD
ENDBRANCH   8  10
ENDBRANCH   7   8
ENDBRANCH   5   7
BRANCH   4  12
ATOM     12  N   UNL A   1      13.113  24.841  24.175  1.00  0.00    -0.353 N 
ATOM     13  H   UNL A   1      12.477  25.567  23.825  1.00  0.00     0.167 HD
BRANCH  12  14
ATOM     14  C   UNL A   1      12.519  23.817  24.983  1.00  0.00     0.076 A 
ATOM     15  C   UNL A   1      12.630  23.795  26.402  1.00  0.00     0.066 A 
ATOM     16  C   UNL A   1      11.743  22.816  24.352  1.00  0.00     0.066 A 
ATOM     17  C   UNL A   1      12.012  22.775  27.135  1.00  0.00     0.023 A 
ATOM     18  Cl  UNL A   1      13.432  25.058  27.336  1.00  0.00    -0.082 Cl
ATOM     19  C   UNL A   1      11.141  21.804  25.106  1.00  0.00     0.023 A 
ATOM     20  Cl  UNL A   1      11.532  22.777  22.604  1.00  0.00    -0.082 Cl
ATOM     21  C   UNL A   1      11.280  21.780  26.491  1.00  0.00     0.003 A 
ENDBRANCH  12  14
ENDBRANCH   4  12
TORSDOF 5
ENDMDL
MODEL 5
REMARK VINA RESULT:    -7.623      2.416      3.991
REMARK INTER + INTRA:          -9.132
REMARK INTER:                  -9.198
REMARK INTRA:                   0.066
REMARK UNBOUND:                 0.497
REMARK SMILES O=C(O)Cc1ccccc1Nc1c(Cl)cccc1Cl
REMARK SMILES IDX 7 1 8 2 9 3 10 4 5 5 6 6 4 7 2 8 1 9 3 10 11 12 12 14 18 15
REMARK SMILES IDX 13 16 17 17 19 18 15 19 14 20 16 21
REMARK H PARENT 3 11 11 13
REMARK Flexibility Score: inf
ROOT
ATOM      1  C   UNL A   1      11.863  22.718  23.214  1.00  0.00     0.000 A 
ATOM      2  C   UNL A   1      12.133  23.483  22.083  1.00  0.00     0.002 A 
ATOM      3  C   UNL A   1      13.046  24.534  22.151  1.00  0.00     0.026 A 
ATOM      4  C   UNL A   1      13.707  24.850  23.358  1.00  0.00     0.042 A 
ATOM      5  C   UNL A   1      13.452  24.040  24.503  1.00  0.00    -0.013 A 
ATOM      6  C   UNL A   1      12.517  22.992  24.413  1.00  0.00     0.006 A 
ENDROOT
BRANCH   5   7
ATOM      7  C   UNL A   1      14.134  24.280  25.837  1.00  0.00     0.160 C 
BRANCH   7   8
ATOM      8  C   UNL A   1      13.199  24.320  27.027  1.00  0.00     0.307 C 
ATOM      9  O   UNL A   1      13.338  25.213  27.847  1.00  0.00    -0.252 OA
BRANCH   8  10
ATOM     10  O   UNL A   1      12.203  23.422  27.212  1.00  0.00    -0.481 OA
ATOM     11  H   UNL A   1      12.203  22.760  27.914  1.00  0.00     0.296 HD
ENDBRANCH   8  10
ENDBRANCH   7   8
ENDBRANCH   5   7
BRANCH   4  12
ATOM     12  N   UNL A   1      14.651  25.931  23.418  1.00  0.00    -0.353 N 
ATOM     13  H   UNL A   1      14.292  26.882  23.271  1.00  0.00     0.167 HD
BRANCH  12  14
ATOM     14  C   UNL A   1      16.026  25.829  23.810  1.00  0.00     0.076 A 
ATOM     15  C   UNL A   1      16.938  24.930  23.190  1.00  0.00     0.066 A 
ATOM     16  C   UNL A   1      16.513  26.695  24.818  1.00  0.00     0.066 A 
ATOM     17  C   UNL A   1      18.274  24.890  23.609  1.00  0.00     0.023 A 
ATOM     18  Cl  UNL A   1      16.514  23.903  21.820  1.00  0.00    -0.082 Cl
ATOM     19  C   UNL A   1      17.850  26.632  25.223  1.00  0.00     0.023 A 
ATOM     20  Cl  UNL A   1      15.462  27.855  25.625  1.00  0.00    -0.082 Cl
ATOM     21  C   UNL A   1      18.725  25.729  24.625  1.00  0.00     0.003 A 
ENDBRANCH  12  14
ENDBRANCH   4  12
TORSDOF 5
ENDMDL
MODEL 6
REMARK VINA RESULT:    -7.505      2.417      3.384
REMARK INTER + INTRA:          -8.982
REMARK INTER:                  -9.389
REMARK INTRA:                   0.407
REMARK UNBOUND:                 0.497
REMARK SMILES O=C(O)Cc1ccccc1Nc1c(Cl)cccc1Cl
REMARK SMILES IDX 7 1 8 2 9 3 10 4 5 5 6 6 4 7 2 8 1 9 3 10 11 12 12 14 18 15
REMARK SMILES IDX 13 16 17 17 19 18 15 19 14 20 16 21
REMARK H PARENT 3 11 11 13
REMARK Flexibility Score: inf
ROOT
ATOM      1  C   UNL A   1      11.907  22.637  23.316  1.00  0.00     0.000 A 
ATOM      2  C   UNL A   1      12.136  23.336  22.135  1.00  0.00     0.002 A 
ATOM      3  C   UNL A   1      13.031  24.406  22.116  1.00  0.00     0.026 A 
ATOM      4  C   UNL A   1      13.713  24.806  23.286  1.00  0.00     0.042 A 
ATOM      5  C   UNL A   1      13.500  24.063  24.484  1.00  0.00    -0.013 A 
ATOM      6  C   UNL A   1      12.583  22.996  24.480  1.00  0.00     0.006 A 
ENDROOT
BRANCH   5   7
ATOM      7  C   UNL A   1      14.207  24.397  25.785  1.00  0.00     0.160 C 
BRANCH   7   8
ATOM      8  C   UNL A   1      13.311  24.415  27.005  1.00  0.00     0.307 C 
ATOM      9  O   UNL A   1      13.479  25.292  27.837  1.00  0.00    -0.252 OA
BRANCH   8  10
ATOM     10  O   UNL A   1      12.321  23.514  27.205  1.00  0.00    -0.481 OA
ATOM     11  H   UNL A   1      11.616  23.344  26.568  1.00  0.00     0.296 HD
ENDBRANCH   8  10
ENDBRANCH   7   8
ENDBRANCH   5   7
BRANCH   4  12
ATOM     12  N   UNL A   1      14.636  25.906  23.258  1.00  0.00    -0.353 N 
ATOM     13  H   UNL A   1      14.270  26.826  22.987  1.00  0.00     0.167 HD
BRANCH  12  14
ATOM     14  C   UNL A   1      15.995  25.878  23.714  1.00  0.00     0.076 A 
ATOM     15  C   UNL A   1      16.473  26.716  24.762  1.00  0.00     0.066 A 
ATOM     16  C   UNL A   1      16.887  24.941  23.140  1.00  0.00     0.066 A 
ATOM     17  C   UNL A   1      17.808  26.628  25.172  1.00  0.00     0.023 A 
ATOM     18  Cl  UNL A   1      15.441  27.818  25.674  1.00  0.00    -0.082 Cl
ATOM     19  C   UNL A   1      18.219  24.878  23.564  1.00  0.00     0.023 A 
ATOM     20  Cl  UNL A   1      16.379  23.850  21.855  1.00  0.00    -0.082 Cl
ATOM     21  C   UNL A   1      18.679  25.722  24.571  1.00  0.00     0.003 A 
ENDBRANCH  12  14
ENDBRANCH   4  12
TORSDOF 5
ENDMDL
MODEL 7
REMARK VINA RESULT:    -7.411     11.018     12.794
REMARK INTER + INTRA:          -8.863
REMARK INTER:                  -8.476
REMARK INTRA:                  -0.387
REMARK UNBOUND:                 0.497
REMARK SMILES O=C(O)Cc1ccccc1Nc1c(Cl)cccc1Cl
REMARK SMILES IDX 7 1 8 2 9 3 10 4 5 5 6 6 4 7 2 8 1 9 3 10 11 12 12 14 18 15
REMARK SMILES IDX 13 16 17 17 19 18 15 19 14 20 16 21
REMARK H PARENT 3 11 11 13
REMARK Flexibility Score: inf
ROOT
ATOM      1  C   UNL A   1      12.423  12.431  24.684  1.00  0.00     0.000 A 
ATOM      2  C   UNL A   1      11.548  13.167  23.890  1.00  0.00     0.002 A 
ATOM      3  C   UNL A   1      10.766  14.172  24.457  1.00  0.00     0.026 A 
ATOM      4  C   UNL A   1      10.835  14.459  25.838  1.00  0.00     0.042 A 
ATOM      5  C   UNL A   1      11.759  13.724  26.638  1.00  0.00    -0.013 A 
ATOM      6  C   UNL A   1      12.529  12.706  26.045  1.00  0.00     0.006 A 
ENDROOT
BRANCH   5   7
ATOM      7  C   UNL A   1      11.927  13.977  28.125  1.00  0.00     0.160 C 
BRANCH   7   8
ATOM      8  C   UNL A   1      13.314  13.692  28.661  1.00  0.00     0.307 C 
ATOM      9  O   UNL A   1      14.217  14.463  28.379  1.00  0.00    -0.252 OA
BRANCH   8  10
ATOM     10  O   UNL A   1      13.593  12.632  29.456  1.00  0.00    -0.481 OA
ATOM     11  H   UNL A   1      13.293  12.557  30.371  1.00  0.00     0.296 HD
ENDBRANCH   8  10
ENDBRANCH   7   8
ENDBRANCH   5   7
BRANCH   4  12
ATOM     12  N   UNL A   1      10.030  15.499  26.414  1.00  0.00    -0.353 N 
ATOM     13  H   UNL A   1      10.513  16.336  26.760  1.00  0.00     0.167 HD
BRANCH  12  14
ATOM     14  C   UNL A   1       8.597  15.550  26.422  1.00  0.00     0.076 A 
ATOM     15  C   UNL A   1       7.787  14.386  26.539  1.00  0.00     0.066 A 
ATOM     16  C   UNL A   1       7.960  16.812  26.366  1.00  0.00     0.066 A 
ATOM     17  C   UNL A   1       6.392  14.505  26.556  1.00  0.00     0.023 A 
ATOM     18  Cl  UNL A   1       8.439  12.764  26.773  1.00  0.00    -0.082 Cl
ATOM     19  C   UNL A   1       6.565  16.904  26.378  1.00  0.00     0.023 A 
ATOM     20  Cl  UNL A   1       8.883  18.307  26.242  1.00  0.00    -0.082 Cl
ATOM     21  C   UNL A   1       5.784  15.755  26.467  1.00  0.00     0.003 A 
ENDBRANCH  12  14
ENDBRANCH   4  12
TORSDOF 5
ENDMDL
MODEL 8
REMARK VINA RESULT:    -7.316     11.246     12.950
REMARK INTER + INTRA:          -8.743
REMARK INTER:                  -8.038
REMARK INTRA:                  -0.705
REMARK UNBOUND:                 0.497
REMARK SMILES O=C(O)Cc1ccccc1Nc1c(Cl)cccc1Cl
REMARK SMILES IDX 7 1 8 2 9 3 10 4 5 5 6 6 4 7 2 8 1 9 3 10 11 12 12 14 18 15
REMARK SMILES IDX 13 16 17 17 19 18 15 19 14 20 16 21
REMARK H PARENT 3 11 11 13
REMARK Flexibility Score: inf
ROOT
ATOM      1  C   UNL A   1      12.276  12.887  24.281  1.00  0.00     0.000 A 
ATOM      2  C   UNL A   1      11.416  13.883  23.826  1.00  0.00     0.002 A 
ATOM      3  C   UNL A   1      10.561  14.529  24.718  1.00  0.00     0.026 A 
ATOM      4  C   UNL A   1      10.541  14.187  26.087  1.00  0.00     0.042 A 
ATOM      5  C   UNL A   1      11.448  13.191  26.551  1.00  0.00    -0.013 A 
ATOM      6  C   UNL A   1      12.293  12.544  25.631  1.00  0.00     0.006 A 
ENDROOT
BRANCH   5   7
ATOM      7  C   UNL A   1      11.523  12.774  28.009  1.00  0.00     0.160 C 
BRANCH   7   8
ATOM      8  C   UNL A   1      12.728  13.304  28.758  1.00  0.00     0.307 C 
ATOM      9  O   UNL A   1      13.156  14.408  28.464  1.00  0.00    -0.252 OA
BRANCH   8  10
ATOM     10  O   UNL A   1      13.339  12.616  29.751  1.00  0.00    -0.481 OA
ATOM     11  H   UNL A   1      13.979  13.008  30.357  1.00  0.00     0.296 HD
ENDBRANCH   8  10
ENDBRANCH   7   8
ENDBRANCH   5   7
BRANCH   4  12
ATOM     12  N   UNL A   1       9.660  14.861  27.000  1.00  0.00    -0.353 N 
ATOM     13  H   UNL A   1      10.071  15.243  27.860  1.00  0.00     0.167 HD
BRANCH  12  14
ATOM     14  C   UNL A   1       8.284  15.184  26.762  1.00  0.00     0.076 A 
ATOM     15  C   UNL A   1       7.818  16.524  26.639  1.00  0.00     0.066 A 
ATOM     16  C   UNL A   1       7.357  14.130  26.585  1.00  0.00     0.066 A 
ATOM     17  C   UNL A   1       6.463  16.772  26.390  1.00  0.00     0.023 A 
ATOM     18  Cl  UNL A   1       8.880  17.932  26.681  1.00  0.00    -0.082 Cl
ATOM     19  C   UNL A   1       6.008  14.404  26.343  1.00  0.00     0.023 A 
ATOM     20  Cl  UNL A   1       7.848  12.442  26.697  1.00  0.00    -0.082 Cl
ATOM     21  C   UNL A   1       5.561  15.719  26.252  1.00  0.00     0.003 A 
ENDBRANCH  12  14
ENDBRANCH   4  12
TORSDOF 5
ENDMDL
MODEL 9
REMARK VINA RESULT:    -7.298      2.318      3.249
REMARK INTER + INTRA:          -8.721
REMARK INTER:                  -8.023
REMARK INTRA:                  -0.698
REMARK UNBOUND:                 0.497
REMARK SMILES O=C(O)Cc1ccccc1Nc1c(Cl)cccc1Cl
REMARK SMILES IDX 7 1 8 2 9 3 10 4 5 5 6 6 4 7 2 8 1 9 3 10 11 12 12 14 18 15
REMARK SMILES IDX 13 16 17 17 19 18 15 19 14 20 16 21
REMARK H PARENT 3 11 11 13
REMARK Flexibility Score: inf
ROOT
ATOM      1  C   UNL A   1      11.891  23.162  21.260  1.00  0.00     0.000 A 
ATOM      2  C   UNL A   1      13.036  23.877  20.921  1.00  0.00     0.002 A 
ATOM      3  C   UNL A   1      14.031  24.096  21.872  1.00  0.00     0.026 A 
ATOM      4  C   UNL A   1      13.900  23.608  23.191  1.00  0.00     0.042 A 
ATOM      5  C   UNL A   1      12.741  22.846  23.521  1.00  0.00    -0.013 A 
ATOM      6  C   UNL A   1      11.744  22.650  22.547  1.00  0.00     0.006 A 
ENDROOT
BRANCH   5   7
ATOM      7  C   UNL A   1      12.522  22.256  24.901  1.00  0.00     0.160 C 
BRANCH   7   8
ATOM      8  C   UNL A   1      11.071  22.014  25.263  1.00  0.00     0.307 C 
ATOM      9  O   UNL A   1      10.687  20.863  25.386  1.00  0.00    -0.252 OA
BRANCH   8  10
ATOM     10  O   UNL A   1      10.188  23.018  25.474  1.00  0.00    -0.481 OA
ATOM     11  H   UNL A   1       9.231  22.892  25.496  1.00  0.00     0.296 HD
ENDBRANCH   8  10
ENDBRANCH   7   8
ENDBRANCH   5   7
BRANCH   4  12
ATOM     12  N   UNL A   1      14.932  23.833  24.164  1.00  0.00    -0.353 N 
ATOM     13  H   UNL A   1      15.492  23.024  24.457  1.00  0.00     0.167 HD
BRANCH  12  14
ATOM     14  C   UNL A   1      15.358  25.108  24.662  1.00  0.00     0.076 A 
ATOM     15  C   UNL A   1      14.679  25.790  25.712  1.00  0.00     0.066 A 
ATOM     16  C   UNL A   1      16.533  25.690  24.129  1.00  0.00     0.066 A 
ATOM     17  C   UNL A   1      15.156  27.026  26.164  1.00  0.00     0.023 A 
ATOM     18  Cl  UNL A   1      13.297  25.117  26.576  1.00  0.00    -0.082 Cl
ATOM     19  C   UNL A   1      16.985  26.929  24.594  1.00  0.00     0.023 A 
ATOM     20  Cl  UNL A   1      17.449  24.909  22.845  1.00  0.00    -0.082 Cl
ATOM     21  C   UNL A   1      16.296  27.597  25.603  1.00  0.00     0.003 A 
ENDBRANCH  12  14
ENDBRANCH   4  12
TORSDOF 5
ENDMDL
