REMARK SMILES CC(C)Cc1ccc([C@@H](C)C(=O)O)cc1
REMARK SMILES IDX 5 1 6 2 7 3 8 4 14 5 15 6 4 7 2 8 1 9 3 10 9 11 10 12 11 13
REMARK SMILES IDX 12 14 13 15
REMARK H PARENT 13 16
REMARK Flexibility Score: inf
ROOT
ATOM      1  C   UNL A   1       4.554   1.111   0.923  1.00  0.00    -0.048 A 
ATOM      2  C   UNL A   1       5.187   0.781   2.132  1.00  0.00     0.004 A 
ATOM      3  C   UNL A   1       6.582   0.730   2.211  1.00  0.00     0.005 A 
ATOM      4  C   UNL A   1       7.371   1.004   1.081  1.00  0.00    -0.034 A 
ATOM      5  C   UNL A   1       6.734   1.331  -0.131  1.00  0.00     0.005 A 
ATOM      6  C   UNL A   1       5.340   1.383  -0.208  1.00  0.00     0.004 A 
ENDROOT
BRANCH   1   7
ATOM      7  C   UNL A   1       3.047   1.165   0.836  1.00  0.00     0.038 C 
BRANCH   7   8
ATOM      8  C   UNL A   1       2.432   2.236   1.766  1.00  0.00    -0.013 C 
ATOM      9  C   UNL A   1       2.925   3.646   1.403  1.00  0.00     0.008 C 
ATOM     10  C   UNL A   1       0.902   2.183   1.683  1.00  0.00     0.008 C 
ENDBRANCH   7   8
ENDBRANCH   1   7
BRANCH   4  11
ATOM     11  C   UNL A   1       8.883   0.947   1.177  1.00  0.00     0.126 C 
ATOM     12  C   UNL A   1       9.435  -0.161   0.266  1.00  0.00     0.025 C 
BRANCH  11  13
ATOM     13  C   UNL A   1       9.473   2.308   0.862  1.00  0.00     0.310 C 
ATOM     14  O   UNL A   1      10.257   2.452  -0.064  1.00  0.00    -0.252 OA
BRANCH  13  15
ATOM     15  O   UNL A   1       9.141   3.382   1.611  1.00  0.00    -0.481 OA
ATOM     16  H   UNL A   1       8.529   3.311   2.357  1.00  0.00     0.296 HD
ENDBRANCH  13  15
ENDBRANCH  11  13
ENDBRANCH   4  11
TORSDOF 5
