MODEL 1
REMARK VINA RESULT:    -7.277      0.000      0.000
REMARK INTER + INTRA:          -9.739
REMARK INTER:                  -9.192
REMARK INTRA:                  -0.547
REMARK UNBOUND:                -0.547
REMARK SMILES CC(C)Cc1ccc([C@@H](C)C(=O)O)cc1
REMARK SMILES IDX 5 1 6 2 7 3 8 4 14 5 15 6 4 7 2 8 1 9 3 10 9 11 10 12 11 13
REMARK SMILES IDX 12 14 13 15
REMARK H PARENT 13 16
REMARK Flexibility Score: inf
ROOT
ATOM      1  C   UNL A   1      12.265  23.866  24.871  1.00  0.00    -0.048 A 
ATOM      2  C   UNL A   1      12.566  24.531  23.672  1.00  0.00     0.004 A 
ATOM      3  C   UNL A   1      13.662  25.397  23.597  1.00  0.00     0.005 A 
ATOM      4  C   UNL A   1      14.475  25.617  24.721  1.00  0.00    -0.034 A 
ATOM      5  C   UNL A   1      14.169  24.952  25.924  1.00  0.00     0.005 A 
ATOM      6  C   UNL A   1      13.074  24.087  25.996  1.00  0.00     0.004 A 
ENDROOT
BRANCH   1   7
ATOM      7  C   UNL A   1      11.081  22.932  24.953  1.00  0.00     0.038 C 
BRANCH   7   8
ATOM      8  C   UNL A   1      10.860  22.371  26.377  1.00  0.00    -0.013 C 
ATOM      9  C   UNL A   1       9.602  22.968  27.028  1.00  0.00     0.008 C 
ATOM     10  C   UNL A   1      10.741  20.843  26.323  1.00  0.00     0.008 C 
ENDBRANCH   7   8
ENDBRANCH   1   7
BRANCH   4  11
ATOM     11  C   UNL A   1      15.661  26.557  24.630  1.00  0.00     0.126 C 
ATOM     12  C   UNL A   1      15.602  27.603  25.754  1.00  0.00     0.025 C 
BRANCH  11  13
ATOM     13  C   UNL A   1      16.953  25.762  24.641  1.00  0.00     0.310 C 
ATOM     14  O   UNL A   1      17.863  26.057  25.401  1.00  0.00    -0.252 OA
BRANCH  13  15
ATOM     15  O   UNL A   1      17.114  24.716  23.802  1.00  0.00    -0.481 OA
ATOM     16  H   UNL A   1      17.901  24.154  23.837  1.00  0.00     0.296 HD
ENDBRANCH  13  15
ENDBRANCH  11  13
ENDBRANCH   4  11
TORSDOF 5
ENDMDL
MODEL 2
REMARK VINA RESULT:    -7.106      1.008      1.843
REMARK INTER + INTRA:          -9.522
REMARK INTER:                  -9.035
REMARK INTRA:                  -0.487
REMARK UNBOUND:                -0.547
REMARK SMILES CC(C)Cc1ccc([C@@H](C)C(=O)O)cc1
REMARK SMILES IDX 5 1 6 2 7 3 8 4 14 5 15 6 4 7 2 8 1 9 3 10 9 11 10 12 11 13
REMARK SMILES IDX 12 14 13 15
REMARK H PARENT 13 16
REMARK Flexibility Score: inf
ROOT
ATOM      1  C   UNL A   1      11.870  23.088  26.294  1.00  0.00    -0.048 A 
ATOM      2  C   UNL A   1      12.007  23.242  24.906  1.00  0.00     0.004 A 
ATOM      3  C   UNL A   1      12.997  24.078  24.379  1.00  0.00     0.005 A 
ATOM      4  C   UNL A   1      13.866  24.778  25.232  1.00  0.00    -0.034 A 
ATOM      5  C   UNL A   1      13.725  24.625  26.624  1.00  0.00     0.005 A 
ATOM      6  C   UNL A   1      12.736  23.789  27.149  1.00  0.00     0.004 A 
ENDROOT
BRANCH   1   7
ATOM      7  C   UNL A   1      10.800  22.187  26.864  1.00  0.00     0.038 C 
BRANCH   7   8
ATOM      8  C   UNL A   1       9.421  22.881  26.959  1.00  0.00    -0.013 C 
ATOM      9  C   UNL A   1       8.272  21.878  26.768  1.00  0.00     0.008 C 
ATOM     10  C   UNL A   1       9.281  23.579  28.317  1.00  0.00     0.008 C 
ENDBRANCH   7   8
ENDBRANCH   1   7
BRANCH   4  11
ATOM     11  C   UNL A   1      14.937  25.681  24.652  1.00  0.00     0.126 C 
ATOM     12  C   UNL A   1      14.981  27.016  25.413  1.00  0.00     0.025 C 
BRANCH  11  13
ATOM     13  C   UNL A   1      16.274  24.965  24.654  1.00  0.00     0.310 C 
ATOM     14  O   UNL A   1      16.412  23.893  24.085  1.00  0.00    -0.252 OA
BRANCH  13  15
ATOM     15  O   UNL A   1      17.333  25.506  25.295  1.00  0.00    -0.481 OA
ATOM     16  H   UNL A   1      17.670  26.384  25.068  1.00  0.00     0.296 HD
ENDBRANCH  13  15
ENDBRANCH  11  13
ENDBRANCH   4  11
TORSDOF 5
ENDMDL
MODEL 3
REMARK VINA RESULT:    -7.080      1.263      2.089
REMARK INTER + INTRA:          -9.490
REMARK INTER:                  -9.112
REMARK INTRA:                  -0.378
REMARK UNBOUND:                -0.547
REMARK SMILES CC(C)Cc1ccc([C@@H](C)C(=O)O)cc1
REMARK SMILES IDX 5 1 6 2 7 3 8 4 14 5 15 6 4 7 2 8 1 9 3 10 9 11 10 12 11 13
REMARK SMILES IDX 12 14 13 15
REMARK H PARENT 13 16
REMARK Flexibility Score: inf
ROOT
ATOM      1  C   UNL A   1      12.605  23.701  24.914  1.00  0.00    -0.048 A 
ATOM      2  C   UNL A   1      13.435  24.290  25.881  1.00  0.00     0.004 A 
ATOM      3  C   UNL A   1      14.774  24.569  25.592  1.00  0.00     0.005 A 
ATOM      4  C   UNL A   1      15.310  24.261  24.330  1.00  0.00    -0.034 A 
ATOM      5  C   UNL A   1      14.478  23.667  23.363  1.00  0.00     0.005 A 
ATOM      6  C   UNL A   1      13.139  23.390  23.653  1.00  0.00     0.004 A 
ENDROOT
BRANCH   1   7
ATOM      7  C   UNL A   1      11.159  23.398  25.226  1.00  0.00     0.038 C 
BRANCH   7   8
ATOM      8  C   UNL A   1      10.988  22.556  26.511  1.00  0.00    -0.013 C 
ATOM      9  C   UNL A   1       9.797  23.047  27.350  1.00  0.00     0.008 C 
ATOM     10  C   UNL A   1      10.793  21.080  26.146  1.00  0.00     0.008 C 
ENDBRANCH   7   8
ENDBRANCH   1   7
BRANCH   4  11
ATOM     11  C   UNL A   1      16.764  24.568  24.026  1.00  0.00     0.126 C 
ATOM     12  C   UNL A   1      16.999  24.587  22.507  1.00  0.00     0.025 C 
BRANCH  11  13
ATOM     13  C   UNL A   1      17.169  25.868  24.694  1.00  0.00     0.310 C 
ATOM     14  O   UNL A   1      16.580  26.909  24.447  1.00  0.00    -0.252 OA
BRANCH  13  15
ATOM     15  O   UNL A   1      18.196  25.889  25.571  1.00  0.00    -0.481 OA
ATOM     16  H   UNL A   1      19.111  26.004  25.279  1.00  0.00     0.296 HD
ENDBRANCH  13  15
ENDBRANCH  11  13
ENDBRANCH   4  11
TORSDOF 5
ENDMDL
MODEL 4
REMARK VINA RESULT:    -7.023      2.983      6.037
REMARK INTER + INTRA:          -9.417
REMARK INTER:                  -9.245
REMARK INTRA:                  -0.172
REMARK UNBOUND:                -0.547
REMARK SMILES CC(C)Cc1ccc([C@@H](C)C(=O)O)cc1
REMARK SMILES IDX 5 1 6 2 7 3 8 4 14 5 15 6 4 7 2 8 1 9 3 10 9 11 10 12 11 13
REMARK SMILES IDX 12 14 13 15
REMARK H PARENT 13 16
REMARK Flexibility Score: inf
ROOT
ATOM      1  C   UNL A   1      14.026  24.995  25.031  1.00  0.00    -0.048 A 
ATOM      2  C   UNL A   1      13.060  24.433  24.181  1.00  0.00     0.004 A 
ATOM      3  C   UNL A   1      12.027  23.648  24.702  1.00  0.00     0.005 A 
ATOM      4  C   UNL A   1      11.944  23.405  26.084  1.00  0.00    -0.034 A 
ATOM      5  C   UNL A   1      12.915  23.966  26.934  1.00  0.00     0.005 A 
ATOM      6  C   UNL A   1      13.945  24.752  26.412  1.00  0.00     0.004 A 
ENDROOT
BRANCH   1   7
ATOM      7  C   UNL A   1      15.142  25.843  24.469  1.00  0.00     0.038 C 
BRANCH   7   8
ATOM      8  C   UNL A   1      16.488  25.086  24.392  1.00  0.00    -0.013 C 
ATOM      9  C   UNL A   1      16.679  24.417  23.021  1.00  0.00     0.008 C 
ATOM     10  C   UNL A   1      17.647  26.052  24.664  1.00  0.00     0.008 C 
ENDBRANCH   7   8
ENDBRANCH   1   7
BRANCH   4  11
ATOM     11  C   UNL A   1      10.820  22.552  26.640  1.00  0.00     0.126 C 
ATOM     12  C   UNL A   1       9.460  23.074  26.149  1.00  0.00     0.025 C 
BRANCH  11  13
ATOM     13  C   UNL A   1      11.049  21.097  26.281  1.00  0.00     0.310 C 
ATOM     14  O   UNL A   1      11.409  20.777  25.158  1.00  0.00    -0.252 OA
BRANCH  13  15
ATOM     15  O   UNL A   1      10.851  20.130  27.204  1.00  0.00    -0.481 OA
ATOM     16  H   UNL A   1      10.221  20.243  27.929  1.00  0.00     0.296 HD
ENDBRANCH  13  15
ENDBRANCH  11  13
ENDBRANCH   4  11
TORSDOF 5
ENDMDL
MODEL 5
REMARK VINA RESULT:    -7.006      0.785      1.968
REMARK INTER + INTRA:          -9.397
REMARK INTER:                  -8.870
REMARK INTRA:                  -0.526
REMARK UNBOUND:                -0.547
REMARK SMILES CC(C)Cc1ccc([C@@H](C)C(=O)O)cc1
REMARK SMILES IDX 5 1 6 2 7 3 8 4 14 5 15 6 4 7 2 8 1 9 3 10 9 11 10 12 11 13
REMARK SMILES IDX 12 14 13 15
REMARK H PARENT 13 16
REMARK Flexibility Score: inf
ROOT
ATOM      1  C   UNL A   1      12.604  23.757  26.421  1.00  0.00    -0.048 A 
ATOM      2  C   UNL A   1      13.485  24.577  27.145  1.00  0.00     0.004 A 
ATOM      3  C   UNL A   1      14.462  25.326  26.482  1.00  0.00     0.005 A 
ATOM      4  C   UNL A   1      14.581  25.266  25.084  1.00  0.00    -0.034 A 
ATOM      5  C   UNL A   1      13.699  24.440  24.360  1.00  0.00     0.005 A 
ATOM      6  C   UNL A   1      12.722  23.694  25.023  1.00  0.00     0.004 A 
ENDROOT
BRANCH   1   7
ATOM      7  C   UNL A   1      11.549  22.947  27.135  1.00  0.00     0.038 C 
BRANCH   7   8
ATOM      8  C   UNL A   1      10.533  22.300  26.165  1.00  0.00    -0.013 C 
ATOM      9  C   UNL A   1      10.717  20.775  26.094  1.00  0.00     0.008 C 
ATOM     10  C   UNL A   1       9.104  22.630  26.609  1.00  0.00     0.008 C 
ENDBRANCH   7   8
ENDBRANCH   1   7
BRANCH   4  11
ATOM     11  C   UNL A   1      15.644  26.082  24.375  1.00  0.00     0.126 C 
ATOM     12  C   UNL A   1      15.759  27.477  25.010  1.00  0.00     0.025 C 
BRANCH  11  13
ATOM     13  C   UNL A   1      16.961  25.331  24.377  1.00  0.00     0.310 C 
ATOM     14  O   UNL A   1      17.190  24.464  23.546  1.00  0.00    -0.252 OA
BRANCH  13  15
ATOM     15  O   UNL A   1      17.899  25.608  25.308  1.00  0.00    -0.481 OA
ATOM     16  H   UNL A   1      18.210  26.511  25.463  1.00  0.00     0.296 HD
ENDBRANCH  13  15
ENDBRANCH  11  13
ENDBRANCH   4  11
TORSDOF 5
ENDMDL
MODEL 6
REMARK VINA RESULT:    -6.476      3.637      5.482
REMARK INTER + INTRA:          -8.727
REMARK INTER:                  -8.562
REMARK INTRA:                  -0.165
REMARK UNBOUND:                -0.547
REMARK SMILES CC(C)Cc1ccc([C@@H](C)C(=O)O)cc1
REMARK SMILES IDX 5 1 6 2 7 3 8 4 14 5 15 6 4 7 2 8 1 9 3 10 9 11 10 12 11 13
REMARK SMILES IDX 12 14 13 15
REMARK H PARENT 13 16
REMARK Flexibility Score: inf
ROOT
ATOM      1  C   UNL A   1      12.415  23.313  20.495  1.00  0.00    -0.048 A 
ATOM      2  C   UNL A   1      11.826  22.745  21.636  1.00  0.00     0.004 A 
ATOM      3  C   UNL A   1      12.230  23.143  22.914  1.00  0.00     0.005 A 
ATOM      4  C   UNL A   1      13.233  24.112  23.076  1.00  0.00    -0.034 A 
ATOM      5  C   UNL A   1      13.825  24.677  21.931  1.00  0.00     0.005 A 
ATOM      6  C   UNL A   1      13.420  24.281  20.654  1.00  0.00     0.004 A 
ENDROOT
BRANCH   1   7
ATOM      7  C   UNL A   1      11.980  22.884  19.114  1.00  0.00     0.038 C 
BRANCH   7   8
ATOM      8  C   UNL A   1      13.138  22.906  18.089  1.00  0.00    -0.013 C 
ATOM      9  C   UNL A   1      12.969  21.808  17.026  1.00  0.00     0.008 C 
ATOM     10  C   UNL A   1      13.208  24.279  17.411  1.00  0.00     0.008 C 
ENDBRANCH   7   8
ENDBRANCH   1   7
BRANCH   4  11
ATOM     11  C   UNL A   1      13.664  24.537  24.467  1.00  0.00     0.126 C 
ATOM     12  C   UNL A   1      12.783  23.860  25.529  1.00  0.00     0.025 C 
BRANCH  11  13
ATOM     13  C   UNL A   1      15.139  24.247  24.663  1.00  0.00     0.310 C 
ATOM     14  O   UNL A   1      15.843  24.997  25.322  1.00  0.00    -0.252 OA
BRANCH  13  15
ATOM     15  O   UNL A   1      15.697  23.153  24.101  1.00  0.00    -0.481 OA
ATOM     16  H   UNL A   1      15.944  23.132  23.166  1.00  0.00     0.296 HD
ENDBRANCH  13  15
ENDBRANCH  11  13
ENDBRANCH   4  11
TORSDOF 5
ENDMDL
MODEL 7
REMARK VINA RESULT:    -6.472      3.400      6.241
REMARK INTER + INTRA:          -8.721
REMARK INTER:                  -8.186
REMARK INTRA:                  -0.535
REMARK UNBOUND:                -0.547
REMARK SMILES CC(C)Cc1ccc([C@@H](C)C(=O)O)cc1
REMARK SMILES IDX 5 1 6 2 7 3 8 4 14 5 15 6 4 7 2 8 1 9 3 10 9 11 10 12 11 13
REMARK SMILES IDX 12 14 13 15
REMARK H PARENT 13 16
REMARK Flexibility Score: inf
ROOT
ATOM      1  C   UNL A   1      13.715  24.500  23.857  1.00  0.00    -0.048 A 
ATOM      2  C   UNL A   1      12.806  23.760  23.084  1.00  0.00     0.004 A 
ATOM      3  C   UNL A   1      11.811  22.995  23.699  1.00  0.00     0.005 A 
ATOM      4  C   UNL A   1      11.707  22.952  25.100  1.00  0.00    -0.034 A 
ATOM      5  C   UNL A   1      12.622  23.692  25.873  1.00  0.00     0.005 A 
ATOM      6  C   UNL A   1      13.615  24.458  25.256  1.00  0.00     0.004 A 
ENDROOT
BRANCH   1   7
ATOM      7  C   UNL A   1      14.791  25.326  23.193  1.00  0.00     0.038 C 
BRANCH   7   8
ATOM      8  C   UNL A   1      16.191  25.087  23.805  1.00  0.00    -0.013 C 
ATOM      9  C   UNL A   1      17.185  24.573  22.751  1.00  0.00     0.008 C 
ATOM     10  C   UNL A   1      16.718  26.386  24.426  1.00  0.00     0.008 C 
ENDBRANCH   7   8
ENDBRANCH   1   7
BRANCH   4  11
ATOM     11  C   UNL A   1      10.624  22.120  25.757  1.00  0.00     0.126 C 
ATOM     12  C   UNL A   1      11.235  21.183  26.811  1.00  0.00     0.025 C 
BRANCH  11  13
ATOM     13  C   UNL A   1       9.554  23.027  26.335  1.00  0.00     0.310 C 
ATOM     14  O   UNL A   1       8.833  23.689  25.604  1.00  0.00    -0.252 OA
BRANCH  13  15
ATOM     15  O   UNL A   1       9.391  23.118  27.673  1.00  0.00    -0.481 OA
ATOM     16  H   UNL A   1       9.275  23.972  28.113  1.00  0.00     0.296 HD
ENDBRANCH  13  15
ENDBRANCH  11  13
ENDBRANCH   4  11
TORSDOF 5
ENDMDL
MODEL 8
REMARK VINA RESULT:    -5.910      9.891     11.522
REMARK INTER + INTRA:          -8.011
REMARK INTER:                  -7.505
REMARK INTRA:                  -0.506
REMARK UNBOUND:                -0.547
REMARK SMILES CC(C)Cc1ccc([C@@H](C)C(=O)O)cc1
REMARK SMILES IDX 5 1 6 2 7 3 8 4 14 5 15 6 4 7 2 8 1 9 3 10 9 11 10 12 11 13
REMARK SMILES IDX 12 14 13 15
REMARK H PARENT 13 16
REMARK Flexibility Score: inf
ROOT
ATOM      1  C   UNL A   1       6.898  15.783  26.480  1.00  0.00    -0.048 A 
ATOM      2  C   UNL A   1       7.208  14.427  26.669  1.00  0.00     0.004 A 
ATOM      3  C   UNL A   1       8.540  14.008  26.741  1.00  0.00     0.005 A 
ATOM      4  C   UNL A   1       9.588  14.936  26.621  1.00  0.00    -0.034 A 
ATOM      5  C   UNL A   1       9.274  16.295  26.428  1.00  0.00     0.005 A 
ATOM      6  C   UNL A   1       7.943  16.713  26.358  1.00  0.00     0.004 A 
ENDROOT
BRANCH   1   7
ATOM      7  C   UNL A   1       5.459  16.237  26.401  1.00  0.00     0.038 C 
BRANCH   7   8
ATOM      8  C   UNL A   1       4.461  15.058  26.361  1.00  0.00    -0.013 C 
ATOM      9  C   UNL A   1       3.766  14.864  27.718  1.00  0.00     0.008 C 
ATOM     10  C   UNL A   1       3.412  15.298  25.269  1.00  0.00     0.008 C 
ENDBRANCH   7   8
ENDBRANCH   1   7
BRANCH   4  11
ATOM     11  C   UNL A   1      11.029  14.472  26.701  1.00  0.00     0.126 C 
ATOM     12  C   UNL A   1      11.190  13.420  27.811  1.00  0.00     0.025 C 
BRANCH  11  13
ATOM     13  C   UNL A   1      11.485  13.965  25.347  1.00  0.00     0.310 C 
ATOM     14  O   UNL A   1      11.484  12.770  25.092  1.00  0.00    -0.252 OA
BRANCH  13  15
ATOM     15  O   UNL A   1      11.906  14.834  24.403  1.00  0.00    -0.481 OA
ATOM     16  H   UNL A   1      12.758  15.287  24.474  1.00  0.00     0.296 HD
ENDBRANCH  13  15
ENDBRANCH  11  13
ENDBRANCH   4  11
TORSDOF 5
ENDMDL
MODEL 9
REMARK VINA RESULT:    -5.744     10.771     12.261
REMARK INTER + INTRA:          -7.803
REMARK INTER:                  -7.304
REMARK INTRA:                  -0.498
REMARK UNBOUND:                -0.547
REMARK SMILES CC(C)Cc1ccc([C@@H](C)C(=O)O)cc1
REMARK SMILES IDX 5 1 6 2 7 3 8 4 14 5 15 6 4 7 2 8 1 9 3 10 9 11 10 12 11 13
REMARK SMILES IDX 12 14 13 15
REMARK H PARENT 13 16
REMARK Flexibility Score: inf
ROOT
ATOM      1  C   UNL A   1       6.025  15.262  26.390  1.00  0.00    -0.048 A 
ATOM      2  C   UNL A   1       6.233  13.874  26.398  1.00  0.00     0.004 A 
ATOM      3  C   UNL A   1       7.530  13.351  26.404  1.00  0.00     0.005 A 
ATOM      4  C   UNL A   1       8.644  14.208  26.397  1.00  0.00    -0.034 A 
ATOM      5  C   UNL A   1       8.433  15.599  26.385  1.00  0.00     0.005 A 
ATOM      6  C   UNL A   1       7.137  16.120  26.381  1.00  0.00     0.004 A 
ENDROOT
BRANCH   1   7
ATOM      7  C   UNL A   1       4.625  15.828  26.382  1.00  0.00     0.038 C 
BRANCH   7   8
ATOM      8  C   UNL A   1       3.585  14.845  25.796  1.00  0.00    -0.013 C 
ATOM      9  C   UNL A   1       2.176  15.124  26.342  1.00  0.00     0.008 C 
ATOM     10  C   UNL A   1       3.579  14.943  24.266  1.00  0.00     0.008 C 
ENDBRANCH   7   8
ENDBRANCH   1   7
BRANCH   4  11
ATOM     11  C   UNL A   1      10.047  13.631  26.404  1.00  0.00     0.126 C 
ATOM     12  C   UNL A   1      10.932  14.367  25.386  1.00  0.00     0.025 C 
BRANCH  11  13
ATOM     13  C   UNL A   1      10.616  13.673  27.809  1.00  0.00     0.310 C 
ATOM     14  O   UNL A   1      10.403  12.766  28.599  1.00  0.00    -0.252 OA
BRANCH  13  15
ATOM     15  O   UNL A   1      11.364  14.725  28.208  1.00  0.00    -0.481 OA
ATOM     16  H   UNL A   1      11.000  15.422  28.773  1.00  0.00     0.296 HD
ENDBRANCH  13  15
ENDBRANCH  11  13
ENDBRANCH   4  11
TORSDOF 5
ENDMDL
